                                  MODFLOW-2005     
      U.S. GEOLOGICAL SURVEY MODULAR FINITE-DIFFERENCE GROUND-WATER FLOW MODEL
                             VERSION 1.3.00 8/1/2007

 LIST FILE: l1a2k.lst
                         UNIT    1

 OPENING l1a2k.ba6
 FILE TYPE:BAS6   UNIT    7   STATUS:OLD    
 FORMAT:FORMATTED              ACCESS:SEQUENTIAL          

 OPENING l1a2k.bc6
 FILE TYPE:BCF6   UNIT   10   STATUS:OLD    
 FORMAT:FORMATTED              ACCESS:SEQUENTIAL          

 OPENING l1a2k.evt
 FILE TYPE:EVT   UNIT   11   STATUS:OLD    
 FORMAT:FORMATTED              ACCESS:SEQUENTIAL          

 OPENING l1a2k.rch
 FILE TYPE:RCH   UNIT   12   STATUS:OLD    
 FORMAT:FORMATTED              ACCESS:SEQUENTIAL          

 OPENING l1a2k.sip
 FILE TYPE:SIP   UNIT   13   STATUS:OLD    
 FORMAT:FORMATTED              ACCESS:SEQUENTIAL          

 OPENING l1a2k.oc
 FILE TYPE:OC   UNIT   17   STATUS:OLD    
 FORMAT:FORMATTED              ACCESS:SEQUENTIAL          

 OPENING l1a2k.lak
 FILE TYPE:LAK   UNIT   16   STATUS:OLD    
 FORMAT:FORMATTED              ACCESS:SEQUENTIAL          

 OPENING l1a2k.dis
 FILE TYPE:DIS   UNIT   14   STATUS:OLD    
 FORMAT:FORMATTED              ACCESS:SEQUENTIAL          

 OPENING l1a2k.fhb
 FILE TYPE:FHB   UNIT   21   STATUS:OLD    
 FORMAT:FORMATTED              ACCESS:SEQUENTIAL          

 OPENING l1a2k.gag
 FILE TYPE:GAGE   UNIT   33   STATUS:OLD    
 FORMAT:FORMATTED              ACCESS:SEQUENTIAL          

 OPENING l1a2k.got
 FILE TYPE:DATA   UNIT   37   STATUS:UNKNOWN
 FORMAT:FORMATTED              ACCESS:SEQUENTIAL          

 BAS -- BASIC PACKAGE, VERSION 7, 5/2/2005 INPUT READ FROM UNIT    7

 DISCRETIZATION INPUT DATA READ FROM UNIT   14
    5 LAYERS        17 ROWS        17 COLUMNS
    1 STRESS PERIOD(S) IN SIMULATION
 MODEL TIME UNIT IS DAYS
 MODEL LENGTH UNIT IS UNDEFINED
  Confining bed flag for each layer:
   0   0   0   0   0



                               DELR
 READING ON UNIT   14 WITH FORMAT: (10F13.0)           
   250.00       1000.0       1000.0       1000.0       1000.0       1000.0       500.00       500.00       500.00       500.00    
   500.00       1000.0       1000.0       1000.0       1000.0       1000.0       250.00    



                               DELC
 READING ON UNIT   14 WITH FORMAT: (10F13.0)           
   250.00       1000.0       1000.0       1000.0       1000.0       1000.0       500.00       500.00       500.00       500.00    
   500.00       1000.0       1000.0       1000.0       1000.0       1000.0       250.00    

 TOP ELEVATION OF LAYER 1 =   500.000    

   MODEL LAYER BOTTOM EL. =   107.000     FOR LAYER   1

   MODEL LAYER BOTTOM EL. =   97.0000     FOR LAYER   2

   MODEL LAYER BOTTOM EL. =   87.0000     FOR LAYER   3

   MODEL LAYER BOTTOM EL. =   77.0000     FOR LAYER   4

   MODEL LAYER BOTTOM EL. =   67.0000     FOR LAYER   5


 STRESS PERIOD     LENGTH       TIME STEPS     MULTIPLIER FOR DELT    SS FLAG
 ----------------------------------------------------------------------------
        1         5000.000        100                    1.020         TR

 TRANSIENT SIMULATION



 
 #Hypothetical simulator of lake and surficial aquifer interaction. ------------ 
 #Shows convergence to equilibrium in transient mode.                            



                     BOUNDARY ARRAY FOR LAYER   1
 READING ON UNIT    7 WITH FORMAT: (20I4)              

        1   2   3   4   5   6   7   8   9  10  11  12  13  14  15  16  17
 ........................................................................
   1   -1  -1  -1  -1  -1  -1  -1  -1  -1  -1  -1  -1  -1  -1  -1  -1  -1
   2   -1   1   1   1   1   1   1   1   1   1   1   1   1   1   1   1  -1
   3   -1   1   1   1   1   1   1   1   1   1   1   1   1   1   1   1  -1
   4   -1   1   1   1   1   1   1   1   1   1   1   1   1   1   1   1  -1
   5   -1   1   1   1   1   1   1   1   1   1   1   1   1   1   1   1  -1
   6   -1   1   1   1   1   1   1   1   1   1   1   1   1   1   1   1  -1
   7   -1   1   1   1   1   1   0   0   0   0   0   1   1   1   1   1  -1
   8   -1   1   1   1   1   1   0   0   0   0   0   1   1   1   1   1  -1
   9   -1   1   1   1   1   1   0   0   0   0   0   1   1   1   1   1  -1
  10   -1   1   1   1   1   1   0   0   0   0   0   1   1   1   1   1  -1
  11   -1   1   1   1   1   1   0   0   0   0   0   1   1   1   1   1  -1
  12   -1   1   1   1   1   1   1   1   1   1   1   1   1   1   1   1  -1
  13   -1   1   1   1   1   1   1   1   1   1   1   1   1   1   1   1  -1
  14   -1   1   1   1   1   1   1   1   1   1   1   1   1   1   1   1  -1
  15   -1   1   1   1   1   1   1   1   1   1   1   1   1   1   1   1  -1
  16   -1   1   1   1   1   1   1   1   1   1   1   1   1   1   1   1  -1
  17   -1  -1  -1  -1  -1  -1  -1  -1  -1  -1  -1  -1  -1  -1  -1  -1  -1



                     BOUNDARY ARRAY FOR LAYER   2
 READING ON UNIT    7 WITH FORMAT: (20I4)              

        1   2   3   4   5   6   7   8   9  10  11  12  13  14  15  16  17
 ........................................................................
   1   -1  -1  -1  -1  -1  -1  -1  -1  -1  -1  -1  -1  -1  -1  -1  -1  -1
   2   -1   1   1   1   1   1   1   1   1   1   1   1   1   1   1   1  -1
   3   -1   1   1   1   1   1   1   1   1   1   1   1   1   1   1   1  -1
   4   -1   1   1   1   1   1   1   1   1   1   1   1   1   1   1   1  -1
   5   -1   1   1   1   1   1   1   1   1   1   1   1   1   1   1   1  -1
   6   -1   1   1   1   1   1   1   1   1   1   1   1   1   1   1   1  -1
   7   -1   1   1   1   1   1   1   1   1   1   1   1   1   1   1   1  -1
   8   -1   1   1   1   1   1   1   0   0   0   1   1   1   1   1   1  -1
   9   -1   1   1   1   1   1   1   0   0   0   1   1   1   1   1   1  -1
  10   -1   1   1   1   1   1   1   0   0   0   1   1   1   1   1   1  -1
  11   -1   1   1   1   1   1   1   1   1   1   1   1   1   1   1   1  -1
  12   -1   1   1   1   1   1   1   1   1   1   1   1   1   1   1   1  -1
  13   -1   1   1   1   1   1   1   1   1   1   1   1   1   1   1   1  -1
  14   -1   1   1   1   1   1   1   1   1   1   1   1   1   1   1   1  -1
  15   -1   1   1   1   1   1   1   1   1   1   1   1   1   1   1   1  -1
  16   -1   1   1   1   1   1   1   1   1   1   1   1   1   1   1   1  -1
  17   -1  -1  -1  -1  -1  -1  -1  -1  -1  -1  -1  -1  -1  -1  -1  -1  -1



                     BOUNDARY ARRAY FOR LAYER   3
 READING ON UNIT    7 WITH FORMAT: (20I4)              

        1   2   3   4   5   6   7   8   9  10  11  12  13  14  15  16  17
 ........................................................................
   1   -1  -1  -1  -1  -1  -1  -1  -1  -1  -1  -1  -1  -1  -1  -1  -1  -1
   2   -1   1   1   1   1   1   1   1   1   1   1   1   1   1   1   1  -1
   3   -1   1   1   1   1   1   1   1   1   1   1   1   1   1   1   1  -1
   4   -1   1   1   1   1   1   1   1   1   1   1   1   1   1   1   1  -1
   5   -1   1   1   1   1   1   1   1   1   1   1   1   1   1   1   1  -1
   6   -1   1   1   1   1   1   1   1   1   1   1   1   1   1   1   1  -1
   7   -1   1   1   1   1   1   1   1   1   1   1   1   1   1   1   1  -1
   8   -1   1   1   1   1   1   1   1   1   1   1   1   1   1   1   1  -1
   9   -1   1   1   1   1   1   1   1   1   1   1   1   1   1   1   1  -1
  10   -1   1   1   1   1   1   1   1   1   1   1   1   1   1   1   1  -1
  11   -1   1   1   1   1   1   1   1   1   1   1   1   1   1   1   1  -1
  12   -1   1   1   1   1   1   1   1   1   1   1   1   1   1   1   1  -1
  13   -1   1   1   1   1   1   1   1   1   1   1   1   1   1   1   1  -1
  14   -1   1   1   1   1   1   1   1   1   1   1   1   1   1   1   1  -1
  15   -1   1   1   1   1   1   1   1   1   1   1   1   1   1   1   1  -1
  16   -1   1   1   1   1   1   1   1   1   1   1   1   1   1   1   1  -1
  17   -1  -1  -1  -1  -1  -1  -1  -1  -1  -1  -1  -1  -1  -1  -1  -1  -1



                     BOUNDARY ARRAY FOR LAYER   4
 READING ON UNIT    7 WITH FORMAT: (20I4)              

        1   2   3   4   5   6   7   8   9  10  11  12  13  14  15  16  17
 ........................................................................
   1   -1  -1  -1  -1  -1  -1  -1  -1  -1  -1  -1  -1  -1  -1  -1  -1  -1
   2   -1   1   1   1   1   1   1   1   1   1   1   1   1   1   1   1  -1
   3   -1   1   1   1   1   1   1   1   1   1   1   1   1   1   1   1  -1
   4   -1   1   1   1   1   1   1   1   1   1   1   1   1   1   1   1  -1
   5   -1   1   1   1   1   1   1   1   1   1   1   1   1   1   1   1  -1
   6   -1   1   1   1   1   1   1   1   1   1   1   1   1   1   1   1  -1
   7   -1   1   1   1   1   1   1   1   1   1   1   1   1   1   1   1  -1
   8   -1   1   1   1   1   1   1   1   1   1   1   1   1   1   1   1  -1
   9   -1   1   1   1   1   1   1   1   1   1   1   1   1   1   1   1  -1
  10   -1   1   1   1   1   1   1   1   1   1   1   1   1   1   1   1  -1
  11   -1   1   1   1   1   1   1   1   1   1   1   1   1   1   1   1  -1
  12   -1   1   1   1   1   1   1   1   1   1   1   1   1   1   1   1  -1
  13   -1   1   1   1   1   1   1   1   1   1   1   1   1   1   1   1  -1
  14   -1   1   1   1   1   1   1   1   1   1   1   1   1   1   1   1  -1
  15   -1   1   1   1   1   1   1   1   1   1   1   1   1   1   1   1  -1
  16   -1   1   1   1   1   1   1   1   1   1   1   1   1   1   1   1  -1
  17   -1  -1  -1  -1  -1  -1  -1  -1  -1  -1  -1  -1  -1  -1  -1  -1  -1



                     BOUNDARY ARRAY FOR LAYER   5
 READING ON UNIT    7 WITH FORMAT: (20I4)              

        1   2   3   4   5   6   7   8   9  10  11  12  13  14  15  16  17
 ........................................................................
   1   -1  -1  -1  -1  -1  -1  -1  -1  -1  -1  -1  -1  -1  -1  -1  -1  -1
   2   -1   1   1   1   1   1   1   1   1   1   1   1   1   1   1   1  -1
   3   -1   1   1   1   1   1   1   1   1   1   1   1   1   1   1   1  -1
   4   -1   1   1   1   1   1   1   1   1   1   1   1   1   1   1   1  -1
   5   -1   1   1   1   1   1   1   1   1   1   1   1   1   1   1   1  -1
   6   -1   1   1   1   1   1   1   1   1   1   1   1   1   1   1   1  -1
   7   -1   1   1   1   1   1   1   1   1   1   1   1   1   1   1   1  -1
   8   -1   1   1   1   1   1   1   1   1   1   1   1   1   1   1   1  -1
   9   -1   1   1   1   1   1   1   1   1   1   1   1   1   1   1   1  -1
  10   -1   1   1   1   1   1   1   1   1   1   1   1   1   1   1   1  -1
  11   -1   1   1   1   1   1   1   1   1   1   1   1   1   1   1   1  -1
  12   -1   1   1   1   1   1   1   1   1   1   1   1   1   1   1   1  -1
  13   -1   1   1   1   1   1   1   1   1   1   1   1   1   1   1   1  -1
  14   -1   1   1   1   1   1   1   1   1   1   1   1   1   1   1   1  -1
  15   -1   1   1   1   1   1   1   1   1   1   1   1   1   1   1   1  -1
  16   -1   1   1   1   1   1   1   1   1   1   1   1   1   1   1   1  -1
  17   -1  -1  -1  -1  -1  -1  -1  -1  -1  -1  -1  -1  -1  -1  -1  -1  -1

 AQUIFER HEAD WILL BE SET TO -999.00     AT ALL NO-FLOW NODES (IBOUND=0).

             INITIAL HEAD =   115.000     FOR LAYER   1

             INITIAL HEAD =   115.000     FOR LAYER   2

             INITIAL HEAD =   115.000     FOR LAYER   3

             INITIAL HEAD =   115.000     FOR LAYER   4

             INITIAL HEAD =   115.000     FOR LAYER   5

 OUTPUT CONTROL IS SPECIFIED EVERY TIME STEP
 HEAD PRINT FORMAT CODE IS -14    DRAWDOWN PRINT FORMAT CODE IS   9
 HEADS WILL BE SAVED ON UNIT   18    DRAWDOWNS WILL BE SAVED ON UNIT   19

 BCF -- BLOCK-CENTERED FLOW PACKAGE, VERSION 7, 5/2/2005
         INPUT READ FROM UNIT 10
 TRANSIENT SIMULATION
 HEAD AT CELLS THAT CONVERT TO DRY=   0.0000    
 WETTING CAPABILITY IS ACTIVE
 WETTING FACTOR=   1.00000     WETTING ITERATION INTERVAL=   1
 FLAG THAT SPECIFIES THE EQUATION TO USE FOR HEAD AT WETTED CELLS=   0
      LAYER  LAYER-TYPE CODE     INTERBLOCK T
      --------------------------------------------
         1            1          0 -- HARMONIC    
         2            3          0 -- HARMONIC    
         3            3          0 -- HARMONIC    
         4            3          0 -- HARMONIC    
         5            3          0 -- HARMONIC    

 COLUMN TO ROW ANISOTROPY =   1.00000    

     PRIMARY STORAGE COEF =  0.200000     FOR LAYER   1

    HYD. COND. ALONG ROWS =   30.0000     FOR LAYER   1

 VERT HYD COND /THICKNESS =   3.00000     FOR LAYER   1



                   WETDRY PARAMETER FOR LAYER   1
 READING ON UNIT   10 WITH FORMAT: (10F13.0)           

         1     2     3     4     5     6     7     8     9    10    11    12    13    14    15    16    17
 .........................................................................................................
   1    0.0   0.0   0.0   0.0   0.0   0.0   0.0   0.0   0.0   0.0   0.0   0.0   0.0   0.0   0.0   0.0   0.0
   2    0.0  -0.2  -0.2  -0.2  -0.2  -0.2  -0.2  -0.2  -0.2  -0.2  -0.2  -0.2  -0.2  -0.2  -0.2  -0.2   0.0
   3    0.0  -0.2  -0.2  -0.2  -0.2  -0.2  -0.2  -0.2  -0.2  -0.2  -0.2  -0.2  -0.2  -0.2  -0.2  -0.2   0.0
   4    0.0  -0.2  -0.2  -0.2  -0.2  -0.2  -0.2  -0.2  -0.2  -0.2  -0.2  -0.2  -0.2  -0.2  -0.2  -0.2   0.0
   5    0.0  -0.2  -0.2  -0.2  -0.2  -0.2  -0.2  -0.2  -0.2  -0.2  -0.2  -0.2  -0.2  -0.2  -0.2  -0.2   0.0
   6    0.0  -0.2  -0.2  -0.2  -0.2  -0.2  -0.2  -0.2  -0.2  -0.2  -0.2  -0.2  -0.2  -0.2  -0.2  -0.2   0.0
   7    0.0  -0.2  -0.2  -0.2  -0.2  -0.2   0.0   0.0   0.0   0.0   0.0  -0.2  -0.2  -0.2  -0.2  -0.2   0.0
   8    0.0  -0.2  -0.2  -0.2  -0.2  -0.2   0.0   0.0   0.0   0.0   0.0  -0.2  -0.2  -0.2  -0.2  -0.2   0.0
   9    0.0  -0.2  -0.2  -0.2  -0.2  -0.2   0.0   0.0   0.0   0.0   0.0  -0.2  -0.2  -0.2  -0.2  -0.2   0.0
  10    0.0  -0.2  -0.2  -0.2  -0.2  -0.2   0.0   0.0   0.0   0.0   0.0  -0.2  -0.2  -0.2  -0.2  -0.2   0.0
  11    0.0  -0.2  -0.2  -0.2  -0.2  -0.2   0.0   0.0   0.0   0.0   0.0  -0.2  -0.2  -0.2  -0.2  -0.2   0.0
  12    0.0  -0.2  -0.2  -0.2  -0.2  -0.2  -0.2  -0.2  -0.2  -0.2  -0.2  -0.2  -0.2  -0.2  -0.2  -0.2   0.0
  13    0.0  -0.2  -0.2  -0.2  -0.2  -0.2  -0.2  -0.2  -0.2  -0.2  -0.2  -0.2  -0.2  -0.2  -0.2  -0.2   0.0
  14    0.0  -0.2  -0.2  -0.2  -0.2  -0.2  -0.2  -0.2  -0.2  -0.2  -0.2  -0.2  -0.2  -0.2  -0.2  -0.2   0.0
  15    0.0  -0.2  -0.2  -0.2  -0.2  -0.2  -0.2  -0.2  -0.2  -0.2  -0.2  -0.2  -0.2  -0.2  -0.2  -0.2   0.0
  16    0.0  -0.2  -0.2  -0.2  -0.2  -0.2  -0.2  -0.2  -0.2  -0.2  -0.2  -0.2  -0.2  -0.2  -0.2  -0.2   0.0
  17    0.0   0.0   0.0   0.0   0.0   0.0   0.0   0.0   0.0   0.0   0.0   0.0   0.0   0.0   0.0   0.0   0.0

     PRIMARY STORAGE COEF =  3.000000E-04 FOR LAYER   2

    HYD. COND. ALONG ROWS =   30.0000     FOR LAYER   2

 VERT HYD COND /THICKNESS =   3.00000     FOR LAYER   2

   SECONDARY STORAGE COEF =  0.200000     FOR LAYER   2



                   WETDRY PARAMETER FOR LAYER   2
 READING ON UNIT   10 WITH FORMAT: (10F13.0)           

         1     2     3     4     5     6     7     8     9    10    11    12    13    14    15    16    17
 .........................................................................................................
   1    0.0   0.0   0.0   0.0   0.0   0.0   0.0   0.0   0.0   0.0   0.0   0.0   0.0   0.0   0.0   0.0   0.0
   2    0.0  -0.2  -0.2  -0.2  -0.2  -0.2  -0.2  -0.2  -0.2  -0.2  -0.2  -0.2  -0.2  -0.2  -0.2  -0.2   0.0
   3    0.0  -0.2  -0.2  -0.2  -0.2  -0.2  -0.2  -0.2  -0.2  -0.2  -0.2  -0.2  -0.2  -0.2  -0.2  -0.2   0.0
   4    0.0  -0.2  -0.2  -0.2  -0.2  -0.2  -0.2  -0.2  -0.2  -0.2  -0.2  -0.2  -0.2  -0.2  -0.2  -0.2   0.0
   5    0.0  -0.2  -0.2  -0.2  -0.2  -0.2  -0.2  -0.2  -0.2  -0.2  -0.2  -0.2  -0.2  -0.2  -0.2  -0.2   0.0
   6    0.0  -0.2  -0.2  -0.2  -0.2  -0.2  -0.2  -0.2  -0.2  -0.2  -0.2  -0.2  -0.2  -0.2  -0.2  -0.2   0.0
   7    0.0  -0.2  -0.2  -0.2  -0.2  -0.2  -0.2  -0.2  -0.2  -0.2  -0.2  -0.2  -0.2  -0.2  -0.2  -0.2   0.0
   8    0.0  -0.2  -0.2  -0.2  -0.2  -0.2  -0.2   0.0   0.0   0.0  -0.2  -0.2  -0.2  -0.2  -0.2  -0.2   0.0
   9    0.0  -0.2  -0.2  -0.2  -0.2  -0.2  -0.2   0.0   0.0   0.0  -0.2  -0.2  -0.2  -0.2  -0.2  -0.2   0.0
  10    0.0  -0.2  -0.2  -0.2  -0.2  -0.2  -0.2   0.0   0.0   0.0  -0.2  -0.2  -0.2  -0.2  -0.2  -0.2   0.0
  11    0.0  -0.2  -0.2  -0.2  -0.2  -0.2  -0.2  -0.2  -0.2  -0.2  -0.2  -0.2  -0.2  -0.2  -0.2  -0.2   0.0
  12    0.0  -0.2  -0.2  -0.2  -0.2  -0.2  -0.2  -0.2  -0.2  -0.2  -0.2  -0.2  -0.2  -0.2  -0.2  -0.2   0.0
  13    0.0  -0.2  -0.2  -0.2  -0.2  -0.2  -0.2  -0.2  -0.2  -0.2  -0.2  -0.2  -0.2  -0.2  -0.2  -0.2   0.0
  14    0.0  -0.2  -0.2  -0.2  -0.2  -0.2  -0.2  -0.2  -0.2  -0.2  -0.2  -0.2  -0.2  -0.2  -0.2  -0.2   0.0
  15    0.0  -0.2  -0.2  -0.2  -0.2  -0.2  -0.2  -0.2  -0.2  -0.2  -0.2  -0.2  -0.2  -0.2  -0.2  -0.2   0.0
  16    0.0  -0.2  -0.2  -0.2  -0.2  -0.2  -0.2  -0.2  -0.2  -0.2  -0.2  -0.2  -0.2  -0.2  -0.2  -0.2   0.0
  17    0.0   0.0   0.0   0.0   0.0   0.0   0.0   0.0   0.0   0.0   0.0   0.0   0.0   0.0   0.0   0.0   0.0

     PRIMARY STORAGE COEF =  3.000000E-04 FOR LAYER   3

    HYD. COND. ALONG ROWS =   30.0000     FOR LAYER   3

 VERT HYD COND /THICKNESS =   3.00000     FOR LAYER   3

   SECONDARY STORAGE COEF =  0.200000     FOR LAYER   3



                   WETDRY PARAMETER FOR LAYER   3
 READING ON UNIT   10 WITH FORMAT: (10F13.0)           

         1     2     3     4     5     6     7     8     9    10    11    12    13    14    15    16    17
 .........................................................................................................
   1    0.0   0.0   0.0   0.0   0.0   0.0   0.0   0.0   0.0   0.0   0.0   0.0   0.0   0.0   0.0   0.0   0.0
   2    0.0  -0.2  -0.2  -0.2  -0.2  -0.2  -0.2  -0.2  -0.2  -0.2  -0.2  -0.2  -0.2  -0.2  -0.2  -0.2   0.0
   3    0.0  -0.2  -0.2  -0.2  -0.2  -0.2  -0.2  -0.2  -0.2  -0.2  -0.2  -0.2  -0.2  -0.2  -0.2  -0.2   0.0
   4    0.0  -0.2  -0.2  -0.2  -0.2  -0.2  -0.2  -0.2  -0.2  -0.2  -0.2  -0.2  -0.2  -0.2  -0.2  -0.2   0.0
   5    0.0  -0.2  -0.2  -0.2  -0.2  -0.2  -0.2  -0.2  -0.2  -0.2  -0.2  -0.2  -0.2  -0.2  -0.2  -0.2   0.0
   6    0.0  -0.2  -0.2  -0.2  -0.2  -0.2  -0.2  -0.2  -0.2  -0.2  -0.2  -0.2  -0.2  -0.2  -0.2  -0.2   0.0
   7    0.0  -0.2  -0.2  -0.2  -0.2  -0.2  -0.2  -0.2  -0.2  -0.2  -0.2  -0.2  -0.2  -0.2  -0.2  -0.2   0.0
   8    0.0  -0.2  -0.2  -0.2  -0.2  -0.2  -0.2  -0.2  -0.2  -0.2  -0.2  -0.2  -0.2  -0.2  -0.2  -0.2   0.0
   9    0.0  -0.2  -0.2  -0.2  -0.2  -0.2  -0.2  -0.2  -0.2  -0.2  -0.2  -0.2  -0.2  -0.2  -0.2  -0.2   0.0
  10    0.0  -0.2  -0.2  -0.2  -0.2  -0.2  -0.2  -0.2  -0.2  -0.2  -0.2  -0.2  -0.2  -0.2  -0.2  -0.2   0.0
  11    0.0  -0.2  -0.2  -0.2  -0.2  -0.2  -0.2  -0.2  -0.2  -0.2  -0.2  -0.2  -0.2  -0.2  -0.2  -0.2   0.0
  12    0.0  -0.2  -0.2  -0.2  -0.2  -0.2  -0.2  -0.2  -0.2  -0.2  -0.2  -0.2  -0.2  -0.2  -0.2  -0.2   0.0
  13    0.0  -0.2  -0.2  -0.2  -0.2  -0.2  -0.2  -0.2  -0.2  -0.2  -0.2  -0.2  -0.2  -0.2  -0.2  -0.2   0.0
  14    0.0  -0.2  -0.2  -0.2  -0.2  -0.2  -0.2  -0.2  -0.2  -0.2  -0.2  -0.2  -0.2  -0.2  -0.2  -0.2   0.0
  15    0.0  -0.2  -0.2  -0.2  -0.2  -0.2  -0.2  -0.2  -0.2  -0.2  -0.2  -0.2  -0.2  -0.2  -0.2  -0.2   0.0
  16    0.0  -0.2  -0.2  -0.2  -0.2  -0.2  -0.2  -0.2  -0.2  -0.2  -0.2  -0.2  -0.2  -0.2  -0.2  -0.2   0.0
  17    0.0   0.0   0.0   0.0   0.0   0.0   0.0   0.0   0.0   0.0   0.0   0.0   0.0   0.0   0.0   0.0   0.0

     PRIMARY STORAGE COEF =  3.000000E-04 FOR LAYER   4

    HYD. COND. ALONG ROWS =   30.0000     FOR LAYER   4

 VERT HYD COND /THICKNESS =   3.00000     FOR LAYER   4

   SECONDARY STORAGE COEF =  0.200000     FOR LAYER   4



                   WETDRY PARAMETER FOR LAYER   4
 READING ON UNIT   10 WITH FORMAT: (10F13.0)           

         1     2     3     4     5     6     7     8     9    10    11    12    13    14    15    16    17
 .........................................................................................................
   1    0.0   0.0   0.0   0.0   0.0   0.0   0.0   0.0   0.0   0.0   0.0   0.0   0.0   0.0   0.0   0.0   0.0
   2    0.0  -0.2  -0.2  -0.2  -0.2  -0.2  -0.2  -0.2  -0.2  -0.2  -0.2  -0.2  -0.2  -0.2  -0.2  -0.2   0.0
   3    0.0  -0.2  -0.2  -0.2  -0.2  -0.2  -0.2  -0.2  -0.2  -0.2  -0.2  -0.2  -0.2  -0.2  -0.2  -0.2   0.0
   4    0.0  -0.2  -0.2  -0.2  -0.2  -0.2  -0.2  -0.2  -0.2  -0.2  -0.2  -0.2  -0.2  -0.2  -0.2  -0.2   0.0
   5    0.0  -0.2  -0.2  -0.2  -0.2  -0.2  -0.2  -0.2  -0.2  -0.2  -0.2  -0.2  -0.2  -0.2  -0.2  -0.2   0.0
   6    0.0  -0.2  -0.2  -0.2  -0.2  -0.2  -0.2  -0.2  -0.2  -0.2  -0.2  -0.2  -0.2  -0.2  -0.2  -0.2   0.0
   7    0.0  -0.2  -0.2  -0.2  -0.2  -0.2  -0.2  -0.2  -0.2  -0.2  -0.2  -0.2  -0.2  -0.2  -0.2  -0.2   0.0
   8    0.0  -0.2  -0.2  -0.2  -0.2  -0.2  -0.2  -0.2  -0.2  -0.2  -0.2  -0.2  -0.2  -0.2  -0.2  -0.2   0.0
   9    0.0  -0.2  -0.2  -0.2  -0.2  -0.2  -0.2  -0.2  -0.2  -0.2  -0.2  -0.2  -0.2  -0.2  -0.2  -0.2   0.0
  10    0.0  -0.2  -0.2  -0.2  -0.2  -0.2  -0.2  -0.2  -0.2  -0.2  -0.2  -0.2  -0.2  -0.2  -0.2  -0.2   0.0
  11    0.0  -0.2  -0.2  -0.2  -0.2  -0.2  -0.2  -0.2  -0.2  -0.2  -0.2  -0.2  -0.2  -0.2  -0.2  -0.2   0.0
  12    0.0  -0.2  -0.2  -0.2  -0.2  -0.2  -0.2  -0.2  -0.2  -0.2  -0.2  -0.2  -0.2  -0.2  -0.2  -0.2   0.0
  13    0.0  -0.2  -0.2  -0.2  -0.2  -0.2  -0.2  -0.2  -0.2  -0.2  -0.2  -0.2  -0.2  -0.2  -0.2  -0.2   0.0
  14    0.0  -0.2  -0.2  -0.2  -0.2  -0.2  -0.2  -0.2  -0.2  -0.2  -0.2  -0.2  -0.2  -0.2  -0.2  -0.2   0.0
  15    0.0  -0.2  -0.2  -0.2  -0.2  -0.2  -0.2  -0.2  -0.2  -0.2  -0.2  -0.2  -0.2  -0.2  -0.2  -0.2   0.0
  16    0.0  -0.2  -0.2  -0.2  -0.2  -0.2  -0.2  -0.2  -0.2  -0.2  -0.2  -0.2  -0.2  -0.2  -0.2  -0.2   0.0
  17    0.0   0.0   0.0   0.0   0.0   0.0   0.0   0.0   0.0   0.0   0.0   0.0   0.0   0.0   0.0   0.0   0.0

     PRIMARY STORAGE COEF =  3.000000E-04 FOR LAYER   5

    HYD. COND. ALONG ROWS =   30.0000     FOR LAYER   5

   SECONDARY STORAGE COEF =  0.200000     FOR LAYER   5



                   WETDRY PARAMETER FOR LAYER   5
 READING ON UNIT   10 WITH FORMAT: (10F13.0)           

         1     2     3     4     5     6     7     8     9    10    11    12    13    14    15    16    17
 .........................................................................................................
   1    0.0   0.0   0.0   0.0   0.0   0.0   0.0   0.0   0.0   0.0   0.0   0.0   0.0   0.0   0.0   0.0   0.0
   2    0.0  -0.2  -0.2  -0.2  -0.2  -0.2  -0.2  -0.2  -0.2  -0.2  -0.2  -0.2  -0.2  -0.2  -0.2  -0.2   0.0
   3    0.0  -0.2  -0.2  -0.2  -0.2  -0.2  -0.2  -0.2  -0.2  -0.2  -0.2  -0.2  -0.2  -0.2  -0.2  -0.2   0.0
   4    0.0  -0.2  -0.2  -0.2  -0.2  -0.2  -0.2  -0.2  -0.2  -0.2  -0.2  -0.2  -0.2  -0.2  -0.2  -0.2   0.0
   5    0.0  -0.2  -0.2  -0.2  -0.2  -0.2  -0.2  -0.2  -0.2  -0.2  -0.2  -0.2  -0.2  -0.2  -0.2  -0.2   0.0
   6    0.0  -0.2  -0.2  -0.2  -0.2  -0.2  -0.2  -0.2  -0.2  -0.2  -0.2  -0.2  -0.2  -0.2  -0.2  -0.2   0.0
   7    0.0  -0.2  -0.2  -0.2  -0.2  -0.2  -0.2  -0.2  -0.2  -0.2  -0.2  -0.2  -0.2  -0.2  -0.2  -0.2   0.0
   8    0.0  -0.2  -0.2  -0.2  -0.2  -0.2  -0.2  -0.2  -0.2  -0.2  -0.2  -0.2  -0.2  -0.2  -0.2  -0.2   0.0
   9    0.0  -0.2  -0.2  -0.2  -0.2  -0.2  -0.2  -0.2  -0.2  -0.2  -0.2  -0.2  -0.2  -0.2  -0.2  -0.2   0.0
  10    0.0  -0.2  -0.2  -0.2  -0.2  -0.2  -0.2  -0.2  -0.2  -0.2  -0.2  -0.2  -0.2  -0.2  -0.2  -0.2   0.0
  11    0.0  -0.2  -0.2  -0.2  -0.2  -0.2  -0.2  -0.2  -0.2  -0.2  -0.2  -0.2  -0.2  -0.2  -0.2  -0.2   0.0
  12    0.0  -0.2  -0.2  -0.2  -0.2  -0.2  -0.2  -0.2  -0.2  -0.2  -0.2  -0.2  -0.2  -0.2  -0.2  -0.2   0.0
  13    0.0  -0.2  -0.2  -0.2  -0.2  -0.2  -0.2  -0.2  -0.2  -0.2  -0.2  -0.2  -0.2  -0.2  -0.2  -0.2   0.0
  14    0.0  -0.2  -0.2  -0.2  -0.2  -0.2  -0.2  -0.2  -0.2  -0.2  -0.2  -0.2  -0.2  -0.2  -0.2  -0.2   0.0
  15    0.0  -0.2  -0.2  -0.2  -0.2  -0.2  -0.2  -0.2  -0.2  -0.2  -0.2  -0.2  -0.2  -0.2  -0.2  -0.2   0.0
  16    0.0  -0.2  -0.2  -0.2  -0.2  -0.2  -0.2  -0.2  -0.2  -0.2  -0.2  -0.2  -0.2  -0.2  -0.2  -0.2   0.0
  17    0.0   0.0   0.0   0.0   0.0   0.0   0.0   0.0   0.0   0.0   0.0   0.0   0.0   0.0   0.0   0.0   0.0

 EVT -- EVAPOTRANSPIRATION PACKAGE, VERSION 7, 5/2/2005
         INPUT READ FROM UNIT   11
 No named parameters
 OPTION 3 -- EVAPOTRANSPIRATION FROM HIGHEST ACTIVE NODE IN EACH VERTICAL COLUMN


     0 Evapotranspiration parameters

 RCH -- RECHARGE PACKAGE, VERSION 7, 5/2/2005 INPUT READ FROM UNIT   12
 No named parameters
 OPTION 3 -- RECHARGE TO HIGHEST ACTIVE NODE IN EACH VERTICAL COLUMN


     0 Recharge parameters

 FHB1 -- SPECIFIED FLOW PACKAGE, VERSION 1,12/3/96 INPUT READ FROM 21
  SPECIFIED FLOW AND HEAD VALUES WILL REMAIN CONSTANT FOR ENTIRE SIMULATION.
 FLOW WILL BE SPECIFIED AT A TOTAL OF    0 CELLS.
 HEAD WILL BE SPECIFIED AT A TOTAL OF  320 CELLS.
 FHB STEADY-STATE OPTION FLAG WILL BE IGNORED,
 AT LEAST ONE STRESS PERIOD IS TRANSIENT.
  0 AUXILIARY VARIABLES FOR SPECIFIED-FLOW CELLS WILL
  BE DEFINED BY FHB FOR USE BY OTHER PACKAGES.
  0 AUXILIARY VARIABLES FOR SPECIFIED-HEAD CELLS WILL
  BE DEFINED BY FHB FOR USE BY OTHER PACKAGES.
 TIMES FOR SPECIFIED-FLOW AND HEAD VALUES WILL BE READ ON UNIT  21 AND
 MULTIPLIED BY   1.000    .
     1 TIMES FOR SPECIFYING FLOWS AND HEADS:
                       1
                 ------------
                    0.000    

 CELL INDICIES AND SPECIFIED-HEAD VALUES WILL BE READ ON UNIT  21. HEAD VALUES
 WILL BE MULTIPLIED BY   1.000    .
 LAYER  ROW  COL IAUX             HEAD VALUES
 -------------------------------
    1    1    1   64   160.0    
    1    2    1   64   160.0    
    1    3    1   64   160.0    
    1    4    1   64   160.0    
    1    5    1   64   160.0    
    1    6    1   64   160.0    
    1    7    1   64   160.0    
    1    8    1   64   160.0    
    1    9    1   64   160.0    
    1   10    1   64   160.0    
    1   11    1   64   160.0    
    1   12    1   64   160.0    
    1   13    1   64   160.0    
    1   14    1   64   160.0    
    1   15    1   64   160.0    
    1   16    1   64   160.0    
    1   17    1   64   160.0    
    1    1   17   64   140.0    
    1    2   17   64   140.0    
    1    3   17   64   140.0    
    1    4   17   64   140.0    
    1    5   17   64   140.0    
    1    6   17   64   140.0    
    1    7   17   64   140.0    
    1    8   17   64   140.0    
    1    9   17   64   140.0    
    1   10   17   64   140.0    
    1   11   17   64   140.0    
    1   12   17   64   140.0    
    1   13   17   64   140.0    
    1   14   17   64   140.0    
    1   15   17   64   140.0    
    1   16   17   64   140.0    
    1   17   17   64   140.0    
    2    1    1   64   160.0    
    2    2    1   64   160.0    
    2    3    1   64   160.0    
    2    4    1   64   160.0    
    2    5    1   64   160.0    
    2    6    1   64   160.0    
    2    7    1   64   160.0    
    2    8    1   64   160.0    
    2    9    1   64   160.0    
    2   10    1   64   160.0    
    2   11    1   64   160.0    
    2   12    1   64   160.0    
    2   13    1   64   160.0    
    2   14    1   64   160.0    
    2   15    1   64   160.0    
    2   16    1   64   160.0    
    2   17    1   64   160.0    
    2    1   17   64   140.0    
    2    2   17   64   140.0    
    2    3   17   64   140.0    
    2    4   17   64   140.0    
    2    5   17   64   140.0    
    2    6   17   64   140.0    
    2    7   17   64   140.0    
    2    8   17   64   140.0    
    2    9   17   64   140.0    
    2   10   17   64   140.0    
    2   11   17   64   140.0    
    2   12   17   64   140.0    
    2   13   17   64   140.0    
    2   14   17   64   140.0    
    2   15   17   64   140.0    
    2   16   17   64   140.0    
    2   17   17   64   140.0    
    3    1    1   64   160.0    
    3    2    1   64   160.0    
    3    3    1   64   160.0    
    3    4    1   64   160.0    
    3    5    1   64   160.0    
    3    6    1   64   160.0    
    3    7    1   64   160.0    
    3    8    1   64   160.0    
    3    9    1   64   160.0    
    3   10    1   64   160.0    
    3   11    1   64   160.0    
    3   12    1   64   160.0    
    3   13    1   64   160.0    
    3   14    1   64   160.0    
    3   15    1   64   160.0    
    3   16    1   64   160.0    
    3   17    1   64   160.0    
    3    1   17   64   140.0    
    3    2   17   64   140.0    
    3    3   17   64   140.0    
    3    4   17   64   140.0    
    3    5   17   64   140.0    
    3    6   17   64   140.0    
    3    7   17   64   140.0    
    3    8   17   64   140.0    
    3    9   17   64   140.0    
    3   10   17   64   140.0    
    3   11   17   64   140.0    
    3   12   17   64   140.0    
    3   13   17   64   140.0    
    3   14   17   64   140.0    
    3   15   17   64   140.0    
    3   16   17   64   140.0    
    3   17   17   64   140.0    
    4    1    1   64   160.0    
    4    2    1   64   160.0    
    4    3    1   64   160.0    
    4    4    1   64   160.0    
    4    5    1   64   160.0    
    4    6    1   64   160.0    
    4    7    1   64   160.0    
    4    8    1   64   160.0    
    4    9    1   64   160.0    
    4   10    1   64   160.0    
    4   11    1   64   160.0    
    4   12    1   64   160.0    
    4   13    1   64   160.0    
    4   14    1   64   160.0    
    4   15    1   64   160.0    
    4   16    1   64   160.0    
    4   17    1   64   160.0    
    4    1   17   64   140.0    
    4    2   17   64   140.0    
    4    3   17   64   140.0    
    4    4   17   64   140.0    
    4    5   17   64   140.0    
    4    6   17   64   140.0    
    4    7   17   64   140.0    
    4    8   17   64   140.0    
    4    9   17   64   140.0    
    4   10   17   64   140.0    
    4   11   17   64   140.0    
    4   12   17   64   140.0    
    4   13   17   64   140.0    
    4   14   17   64   140.0    
    4   15   17   64   140.0    
    4   16   17   64   140.0    
    4   17   17   64   140.0    
    5    1    1   64   160.0    
    5    2    1   64   160.0    
    5    3    1   64   160.0    
    5    4    1   64   160.0    
    5    5    1   64   160.0    
    5    6    1   64   160.0    
    5    7    1   64   160.0    
    5    8    1   64   160.0    
    5    9    1   64   160.0    
    5   10    1   64   160.0    
    5   11    1   64   160.0    
    5   12    1   64   160.0    
    5   13    1   64   160.0    
    5   14    1   64   160.0    
    5   15    1   64   160.0    
    5   16    1   64   160.0    
    5   17    1   64   160.0    
    5    1   17   64   140.0    
    5    2   17   64   140.0    
    5    3   17   64   140.0    
    5    4   17   64   140.0    
    5    5   17   64   140.0    
    5    6   17   64   140.0    
    5    7   17   64   140.0    
    5    8   17   64   140.0    
    5    9   17   64   140.0    
    5   10   17   64   140.0    
    5   11   17   64   140.0    
    5   12   17   64   140.0    
    5   13   17   64   140.0    
    5   14   17   64   140.0    
    5   15   17   64   140.0    
    5   16   17   64   140.0    
    5   17   17   64   140.0    
    1    1    2   64   158.9    
    1    1    3   64   157.3    
    1    1    4   64   155.8    
    1    1    5   64   154.2    
    1    1    6   64   152.7    
    1    1    7   64   151.5    
    1    1    8   64   150.8    
    1    1    9   64   150.0    
    1    1   10   64   149.2    
    1    1   11   64   148.5    
    1    1   12   64   147.3    
    1    1   13   64   145.8    
    1    1   14   64   144.2    
    1    1   15   64   142.7    
    1    1   16   64   141.1    
    1   17    2   64   158.9    
    1   17    3   64   157.3    
    1   17    4   64   155.8    
    1   17    5   64   154.2    
    1   17    6   64   152.7    
    1   17    7   64   151.5    
    1   17    8   64   150.8    
    1   17    9   64   150.0    
    1   17   10   64   149.2    
    1   17   11   64   148.5    
    1   17   12   64   147.3    
    1   17   13   64   145.8    
    1   17   14   64   144.2    
    1   17   15   64   142.7    
    1   17   16   64   141.1    
    2    1    2   64   158.9    
    2    1    3   64   157.3    
    2    1    4   64   155.8    
    2    1    5   64   154.2    
    2    1    6   64   152.7    
    2    1    7   64   151.5    
    2    1    8   64   150.8    
    2    1    9   64   150.0    
    2    1   10   64   149.2    
    2    1   11   64   148.5    
    2    1   12   64   147.3    
    2    1   13   64   145.8    
    2    1   14   64   144.2    
    2    1   15   64   142.7    
    2    1   16   64   141.1    
    2   17    2   64   158.9    
    2   17    3   64   157.3    
    2   17    4   64   155.8    
    2   17    5   64   154.2    
    2   17    6   64   152.7    
    2   17    7   64   151.5    
    2   17    8   64   150.8    
    2   17    9   64   150.0    
    2   17   10   64   149.2    
    2   17   11   64   148.5    
    2   17   12   64   147.3    
    2   17   13   64   145.8    
    2   17   14   64   144.2    
    2   17   15   64   142.7    
    2   17   16   64   141.1    
    3    1    2   64   158.9    
    3    1    3   64   157.3    
    3    1    4   64   155.8    
    3    1    5   64   154.2    
    3    1    6   64   152.7    
    3    1    7   64   151.5    
    3    1    8   64   150.8    
    3    1    9   64   150.0    
    3    1   10   64   149.2    
    3    1   11   64   148.5    
    3    1   12   64   147.3    
    3    1   13   64   145.8    
    3    1   14   64   144.2    
    3    1   15   64   142.7    
    3    1   16   64   141.1    
    3   17    2   64   158.9    
    3   17    3   64   157.3    
    3   17    4   64   155.8    
    3   17    5   64   154.2    
    3   17    6   64   152.7    
    3   17    7   64   151.5    
    3   17    8   64   150.8    
    3   17    9   64   150.0    
    3   17   10   64   149.2    
    3   17   11   64   148.5    
    3   17   12   64   147.3    
    3   17   13   64   145.8    
    3   17   14   64   144.2    
    3   17   15   64   142.7    
    3   17   16   64   141.1    
    4    1    2   64   158.9    
    4    1    3   64   157.3    
    4    1    4   64   155.8    
    4    1    5   64   154.2    
    4    1    6   64   152.7    
    4    1    7   64   151.5    
    4    1    8   64   150.8    
    4    1    9   64   150.0    
    4    1   10   64   149.2    
    4    1   11   64   148.5    
    4    1   12   64   147.3    
    4    1   13   64   145.8    
    4    1   14   64   144.2    
    4    1   15   64   142.7    
    4    1   16   64   141.1    
    4   17    2   64   158.9    
    4   17    3   64   157.3    
    4   17    4   64   155.8    
    4   17    5   64   154.2    
    4   17    6   64   152.7    
    4   17    7   64   151.5    
    4   17    8   64   150.8    
    4   17    9   64   150.0    
    4   17   10   64   149.2    
    4   17   11   64   148.5    
    4   17   12   64   147.3    
    4   17   13   64   145.8    
    4   17   14   64   144.2    
    4   17   15   64   142.7    
    4   17   16   64   141.1    
    5    1    2   64   158.9    
    5    1    3   64   157.3    
    5    1    4   64   155.8    
    5    1    5   64   154.2    
    5    1    6   64   152.7    
    5    1    7   64   151.5    
    5    1    8   64   150.8    
    5    1    9   64   150.0    
    5    1   10   64   149.2    
    5    1   11   64   148.5    
    5    1   12   64   147.3    
    5    1   13   64   145.8    
    5    1   14   64   144.2    
    5    1   15   64   142.7    
    5    1   16   64   141.1    
    5   17    2   64   158.9    
    5   17    3   64   157.3    
    5   17    4   64   155.8    
    5   17    5   64   154.2    
    5   17    6   64   152.7    
    5   17    7   64   151.5    
    5   17    8   64   150.8    
    5   17    9   64   150.0    
    5   17   10   64   149.2    
    5   17   11   64   148.5    
    5   17   12   64   147.3    
    5   17   13   64   145.8    
    5   17   14   64   144.2    
    5   17   15   64   142.7    
    5   17   16   64   141.1    

 LAK7 -- LAKE PACKAGE, VERSION 7, 6/28/2006 INPUT READ FROM UNIT 16
 SPACE ALLOCATION FOR    722 GRID CELL FACES ADJACENT TOLAKES
 MAXIMUM NUMBER OF LAKES IS  1 FOR THIS SIMULATION
 CELL-BY-CELL SEEPAGES WILL NOT BE PRINTED OR SAVED

 THETA =  0.500
 THETA IS THE TIME WEIGHTING FACTOR FOR COMPUTING LAKE STAGE DURING TRANSIENT MODFLOW TIME STEPS AND ITS DEFINITION HAS BEEN MODIFIED.
 THETA CANNOT BE LESS THAN 0.5 NOR GREATER THAN 1.0 AND VALUES OUTSIDE THIS RANGE ARE AUTOMATICALLY RESET TO 0.5 AND 1.0, 'RESPECTIVELY.
 A THETA OF 0.5 REPRESENTS THE AVERAGE LAKE STAGE DURING A TIME STEP.
 A THETA OF 1.0 REPRESENTS THE LAKE STAGE AT THE END OF THE TIME STEP.




 LAKE PACKAGE HAS BEEN MODIFIED TO ITERATIVELY SOLVE FOR LAKE STAGE DURING TRANSIENT STRESS PERIODS:
 MAXIMUM NUMBER OF ITERATIONS (NSSITR) =   100
 CLOSURE CRITERIA FOR LAKE STAGE (SSCNCR) = 1.000000E-04
 DEFAULT VALUES FOR TRANSIENT ONLY SIMULATIONS ARE: NSSITR = 100 AND SSCNCR = 0.0001
 VALUES OTHER THAN DEFAULT CAN BE READ BY SPECIFYING A THETA LESS THAN ZERO THEN ADDING NSSITR AND SSCNCR PER ORIGINAL INSTRUCTIONS.
 NEGATIVE THETA MUST BE LESS THAN ZERO BUT NOT MORE THAN ONE. THETA IS CONVERTED TO A POSITIVE VALUE.
 MINIMUM AND MAXIMUM LAKE STAGES FOR TRANSIENT SIMULATIONS ARE SET TO BOTTOM AND TOP ELEVATIONS USED TO COMPUTE LAKE VOLUME, RESPECTIVELY.





   1 GAGING STATION WAS SPECIFIED.
     (Lakes are identified by a negative value of the Lake Number)
     RECORDS WILL BE WRITTEN TO SEPARATE OUTPUT FILE REPRESENTED BY FOLLOWING UNIT NUMBER:
 Lake Gages:
  GAGE #    LAKE     UNIT   OUTTYPE
       1      -1      37





 SIP -- STRONGLY-IMPLICIT PROCEDURE SOLUTION PACKAGE
                    VERSION 7, 5/2/2005 INPUT READ FROM UNIT   13
 MAXIMUM OF 500 ITERATIONS ALLOWED FOR CLOSURE
  5 ITERATION PARAMETERS

          SOLUTION BY THE STRONGLY IMPLICIT PROCEDURE
          -------------------------------------------
 MAXIMUM ITERATIONS ALLOWED FOR CLOSURE =      500
                 ACCELERATION PARAMETER =     1.0000    
      HEAD CHANGE CRITERION FOR CLOSURE =    0.10000E-03
      SIP HEAD CHANGE PRINTOUT INTERVAL =        1

     CALCULATE ITERATION PARAMETERS FROM MODEL CALCULATED WSEED
1
                            STRESS PERIOD NO.    1, LENGTH =   5000.000    
                            -----------------------------------------------

                              NUMBER OF TIME STEPS =   100

                               MULTIPLIER FOR DELT =     1.020

                            INITIAL TIME STEP SIZE =   16.01374    



                         ET SURFACE
 READING ON UNIT   11 WITH FORMAT: (19F6.1)            

         1     2     3     4     5     6     7     8     9    10    11    12    13    14    15    16    17
 .........................................................................................................
   1  160.0 159.0 157.4 155.9 154.3 152.7 151.6 150.8 150.0 149.2 148.4 147.3 145.7 144.1 142.6 141.0 140.0
   2  160.0 159.0 157.4 155.9 154.3 152.7 151.6 150.8 150.0 149.2 148.4 147.3 145.7 144.1 142.6 141.0 140.0
   3  160.0 159.0 157.4 155.9 154.3 152.7 151.6 150.8 150.0 149.2 148.4 147.3 145.7 144.1 142.6 141.0 140.0
   4  160.0 159.0 157.4 155.9 154.3 152.7 151.6 150.8 150.0 149.2 148.4 147.3 145.7 144.1 142.6 141.0 140.0
   5  160.0 159.0 157.4 155.9 154.3 152.7 151.6 150.8 150.0 149.2 148.4 147.3 145.7 144.1 142.6 141.0 140.0
   6  160.0 159.0 157.4 155.9 154.3 152.7 151.6 150.8 150.0 149.2 148.4 147.3 145.7 144.1 142.6 141.0 140.0
   7  160.0 159.0 157.4 155.9 154.3 152.7 105.0 105.0 105.0 105.0 105.0 147.3 145.7 144.1 142.6 141.0 140.0
   8  160.0 159.0 157.4 155.9 154.3 152.7 105.0  95.0  95.0  95.0 105.0 147.3 145.7 144.1 142.6 141.0 140.0
   9  160.0 159.0 157.4 155.9 154.3 152.7 105.0  95.0  95.0  95.0 105.0 147.3 145.7 144.1 142.6 141.0 140.0
  10  160.0 159.0 157.4 155.9 154.3 152.7 105.0  95.0  95.0  95.0 105.0 147.3 145.7 144.1 142.6 141.0 140.0
  11  160.0 159.0 157.4 155.9 154.3 152.7 105.0 105.0 105.0 105.0 105.0 147.3 145.7 144.1 142.6 141.0 140.0
  12  160.0 159.0 157.4 155.9 154.3 152.7 151.6 150.8 150.0 149.2 148.4 147.3 145.7 144.1 142.6 141.0 140.0
  13  160.0 159.0 157.4 155.9 154.3 152.7 151.6 150.8 150.0 149.2 148.4 147.3 145.7 144.1 142.6 141.0 140.0
  14  160.0 159.0 157.4 155.9 154.3 152.7 151.6 150.8 150.0 149.2 148.4 147.3 145.7 144.1 142.6 141.0 140.0
  15  160.0 159.0 157.4 155.9 154.3 152.7 151.6 150.8 150.0 149.2 148.4 147.3 145.7 144.1 142.6 141.0 140.0
  16  160.0 159.0 157.4 155.9 154.3 152.7 151.6 150.8 150.0 149.2 148.4 147.3 145.7 144.1 142.6 141.0 140.0
  17  160.0 159.0 157.4 155.9 154.3 152.7 151.6 150.8 150.0 149.2 148.4 147.3 145.7 144.1 142.6 141.0 140.0

  EVAPOTRANSPIRATION RATE =  1.410000E-02

         EXTINCTION DEPTH =   15.0000    

                 RECHARGE =  1.160000E-02


 LAKE PACKAGE ACTIVE:  CALCULATED LAKE STAGE FOR EACH TIME STEP WILL BE STORED IN HNEW ARRAY.

 INITIAL LAKE STAGE:  LAKE    STAGE

                        1   110.000




 If any subsequent steady-state stress periods, min. and max. stages for each lake will be read in Record 9a.





                      LAKE ID ARRAY FOR LAYER   1
 READING ON UNIT   16 WITH FORMAT: (24I3)              

        1   2   3   4   5   6   7   8   9  10  11  12  13  14  15  16  17
 ........................................................................
   1    0   0   0   0   0   0   0   0   0   0   0   0   0   0   0   0   0
   2    0   0   0   0   0   0   0   0   0   0   0   0   0   0   0   0   0
   3    0   0   0   0   0   0   0   0   0   0   0   0   0   0   0   0   0
   4    0   0   0   0   0   0   0   0   0   0   0   0   0   0   0   0   0
   5    0   0   0   0   0   0   0   0   0   0   0   0   0   0   0   0   0
   6    0   0   0   0   0   0   0   0   0   0   0   0   0   0   0   0   0
   7    0   0   0   0   0   0   1   1   1   1   1   0   0   0   0   0   0
   8    0   0   0   0   0   0   1   1   1   1   1   0   0   0   0   0   0
   9    0   0   0   0   0   0   1   1   1   1   1   0   0   0   0   0   0
  10    0   0   0   0   0   0   1   1   1   1   1   0   0   0   0   0   0
  11    0   0   0   0   0   0   1   1   1   1   1   0   0   0   0   0   0
  12    0   0   0   0   0   0   0   0   0   0   0   0   0   0   0   0   0
  13    0   0   0   0   0   0   0   0   0   0   0   0   0   0   0   0   0
  14    0   0   0   0   0   0   0   0   0   0   0   0   0   0   0   0   0
  15    0   0   0   0   0   0   0   0   0   0   0   0   0   0   0   0   0
  16    0   0   0   0   0   0   0   0   0   0   0   0   0   0   0   0   0
  17    0   0   0   0   0   0   0   0   0   0   0   0   0   0   0   0   0



                      LAKE ID ARRAY FOR LAYER   2
 READING ON UNIT   16 WITH FORMAT: (24I3)              

        1   2   3   4   5   6   7   8   9  10  11  12  13  14  15  16  17
 ........................................................................
   1    0   0   0   0   0   0   0   0   0   0   0   0   0   0   0   0   0
   2    0   0   0   0   0   0   0   0   0   0   0   0   0   0   0   0   0
   3    0   0   0   0   0   0   0   0   0   0   0   0   0   0   0   0   0
   4    0   0   0   0   0   0   0   0   0   0   0   0   0   0   0   0   0
   5    0   0   0   0   0   0   0   0   0   0   0   0   0   0   0   0   0
   6    0   0   0   0   0   0   0   0   0   0   0   0   0   0   0   0   0
   7    0   0   0   0   0   0   0   0   0   0   0   0   0   0   0   0   0
   8    0   0   0   0   0   0   0   1   1   1   0   0   0   0   0   0   0
   9    0   0   0   0   0   0   0   1   1   1   0   0   0   0   0   0   0
  10    0   0   0   0   0   0   0   1   1   1   0   0   0   0   0   0   0
  11    0   0   0   0   0   0   0   0   0   0   0   0   0   0   0   0   0
  12    0   0   0   0   0   0   0   0   0   0   0   0   0   0   0   0   0
  13    0   0   0   0   0   0   0   0   0   0   0   0   0   0   0   0   0
  14    0   0   0   0   0   0   0   0   0   0   0   0   0   0   0   0   0
  15    0   0   0   0   0   0   0   0   0   0   0   0   0   0   0   0   0
  16    0   0   0   0   0   0   0   0   0   0   0   0   0   0   0   0   0
  17    0   0   0   0   0   0   0   0   0   0   0   0   0   0   0   0   0

            LAKE ID ARRAY =              0 FOR LAYER   3

            LAKE ID ARRAY =              0 FOR LAYER   4

            LAKE ID ARRAY =              0 FOR LAYER   5





   LAKEBED LEAKANCE ARRAY =  0.100000     FOR LAYER   1

   LAKEBED LEAKANCE ARRAY =  0.100000     FOR LAYER   2

   LAKEBED LEAKANCE ARRAY =  0.100000     FOR LAYER   3

   LAKEBED LEAKANCE ARRAY =  0.100000     FOR LAYER   4

   LAKEBED LEAKANCE ARRAY =  0.100000     FOR LAYER   5

       LOCATIONS, LAKE #, INTERFACE TYPE FOR GRID CELLS ADJACENT TO LAKES:
     -----------------------------------------------------------------------
     LAYER #    ROW #    COLUMN #   LAKE #  INTERFACE TYPE  LAKEBED LEAKANCE
         1         7         6         1         2             0.10000
         1         8         6         1         2             0.10000
         1         9         6         1         2             0.10000
         1        10         6         1         2             0.10000
         1        11         6         1         2             0.10000
         1         6         7         1         3             0.10000
         2         7         7         1         6             0.10000
         2         8         7         1         6             0.10000
         2         8         7         1         2             0.10000
         2         9         7         1         6             0.10000
         2         9         7         1         2             0.10000
         2        10         7         1         6             0.10000
         2        10         7         1         2             0.10000
         2        11         7         1         6             0.10000
         1        12         7         1         4             0.10000
         1         6         8         1         3             0.10000
         2         7         8         1         6             0.10000
         2         7         8         1         3             0.10000
         3         8         8         1         6             0.10000
         3         9         8         1         6             0.10000
         3        10         8         1         6             0.10000
         2        11         8         1         6             0.10000
         2        11         8         1         4             0.10000
         1        12         8         1         4             0.10000
         1         6         9         1         3             0.10000
         2         7         9         1         6             0.10000
         2         7         9         1         3             0.10000
         3         8         9         1         6             0.10000
         3         9         9         1         6             0.10000
         3        10         9         1         6             0.10000
         2        11         9         1         6             0.10000
         2        11         9         1         4             0.10000
         1        12         9         1         4             0.10000
         1         6        10         1         3             0.10000
         2         7        10         1         6             0.10000
         2         7        10         1         3             0.10000
         3         8        10         1         6             0.10000
         3         9        10         1         6             0.10000
         3        10        10         1         6             0.10000
         2        11        10         1         6             0.10000
         2        11        10         1         4             0.10000
         1        12        10         1         4             0.10000
         1         6        11         1         3             0.10000
         2         7        11         1         6             0.10000
         2         8        11         1         6             0.10000
         2         8        11         1         1             0.10000
         2         9        11         1         6             0.10000
         2         9        11         1         1             0.10000
         2        10        11         1         6             0.10000
         2        10        11         1         1             0.10000
         2        11        11         1         6             0.10000
         1        12        11         1         4             0.10000
         1         7        12         1         1             0.10000
         1         8        12         1         1             0.10000
         1         9        12         1         1             0.10000
         1        10        12         1         1             0.10000
         1        11        12         1         1             0.10000

     NUMBER OF LAKE-AQUIFER CELL INTERFACES =    57


 STAGE/VOLUME RELATION FOR LAKE  1

      STAGE        VOLUME        AREA

   9.70000E+01   0.00000E+00   2.25000E+06
   9.72000E+01   4.49993E+05   2.25000E+06
   9.74000E+01   8.99986E+05   2.25000E+06
   9.76000E+01   1.34998E+06   2.25000E+06
   9.78000E+01   1.79997E+06   2.25000E+06
   9.80000E+01   2.24997E+06   2.25000E+06
   9.82000E+01   2.69996E+06   2.25000E+06
   9.84000E+01   3.14995E+06   2.25000E+06
   9.86000E+01   3.59994E+06   2.25000E+06
   9.88000E+01   4.04994E+06   2.25000E+06
   9.90000E+01   4.49993E+06   2.25000E+06
   9.92000E+01   4.94992E+06   2.25000E+06
   9.94000E+01   5.39992E+06   2.25000E+06
   9.96000E+01   5.84991E+06   2.25000E+06
   9.98000E+01   6.29990E+06   2.25000E+06
   1.00000E+02   6.74990E+06   2.25000E+06
   1.00200E+02   7.19989E+06   2.25000E+06
   1.00400E+02   7.64988E+06   2.25000E+06
   1.00600E+02   8.09988E+06   2.25000E+06
   1.00800E+02   8.54987E+06   2.25000E+06
   1.01000E+02   8.99986E+06   2.25000E+06
   1.01200E+02   9.44986E+06   2.25000E+06
   1.01400E+02   9.89985E+06   2.25000E+06
   1.01600E+02   1.03498E+07   2.25000E+06
   1.01800E+02   1.07998E+07   2.25000E+06
   1.02000E+02   1.12498E+07   2.25000E+06
   1.02200E+02   1.16998E+07   2.25000E+06
   1.02400E+02   1.21498E+07   2.25000E+06
   1.02600E+02   1.25998E+07   2.25000E+06
   1.02800E+02   1.30498E+07   2.25000E+06
   1.03000E+02   1.34998E+07   2.25000E+06
   1.03200E+02   1.39498E+07   2.25000E+06
   1.03400E+02   1.43998E+07   2.25000E+06
   1.03600E+02   1.48498E+07   2.25000E+06
   1.03800E+02   1.52998E+07   2.25000E+06
   1.04000E+02   1.57498E+07   2.25000E+06
   1.04200E+02   1.61998E+07   2.25000E+06
   1.04400E+02   1.66497E+07   2.25000E+06
   1.04600E+02   1.70997E+07   2.25000E+06
   1.04800E+02   1.75497E+07   2.25000E+06
   1.05000E+02   1.79997E+07   2.25000E+06
   1.05200E+02   1.84497E+07   2.25000E+06
   1.05400E+02   1.88997E+07   2.25000E+06
   1.05600E+02   1.93497E+07   2.25000E+06
   1.05800E+02   1.97997E+07   2.25000E+06
   1.06000E+02   2.02497E+07   2.25000E+06
   1.06200E+02   2.06997E+07   2.25000E+06
   1.06400E+02   2.11497E+07   2.25000E+06
   1.06600E+02   2.15997E+07   2.25000E+06
   1.06800E+02   2.20497E+07   2.25000E+06
   1.07000E+02   2.24997E+07   2.25000E+06
   1.07200E+02   2.37490E+07   6.25000E+06
   1.07400E+02   2.49990E+07   6.25000E+06
   1.07600E+02   2.62490E+07   6.25000E+06
   1.07800E+02   2.74990E+07   6.25000E+06
   1.08000E+02   2.87490E+07   6.25000E+06
   1.08200E+02   2.99989E+07   6.25000E+06
   1.08400E+02   3.12489E+07   6.25000E+06
   1.08600E+02   3.24989E+07   6.25000E+06
   1.08800E+02   3.37489E+07   6.25000E+06
   1.09000E+02   3.49989E+07   6.25000E+06
   1.09200E+02   3.62488E+07   6.25000E+06
   1.09400E+02   3.74988E+07   6.25000E+06
   1.09600E+02   3.87488E+07   6.25000E+06
   1.09800E+02   3.99988E+07   6.25000E+06
   1.10000E+02   4.12488E+07   6.25000E+06
   1.10200E+02   4.24987E+07   6.25000E+06
   1.10400E+02   4.37487E+07   6.25000E+06
   1.10600E+02   4.49987E+07   6.25000E+06
   1.10800E+02   4.62487E+07   6.25000E+06
   1.11000E+02   4.74987E+07   6.25000E+06
   1.11200E+02   4.87486E+07   6.25000E+06
   1.11400E+02   4.99986E+07   6.25000E+06
   1.11600E+02   5.12486E+07   6.25000E+06
   1.11800E+02   5.24986E+07   6.25000E+06
   1.12000E+02   5.37486E+07   6.25000E+06
   1.12200E+02   5.49986E+07   6.25000E+06
   1.12400E+02   5.62485E+07   6.25000E+06
   1.12600E+02   5.74985E+07   6.25000E+06
   1.12800E+02   5.87485E+07   6.25000E+06
   1.13000E+02   5.99985E+07   6.25000E+06
   1.13200E+02   6.12485E+07   6.25000E+06
   1.13400E+02   6.24984E+07   6.25000E+06
   1.13600E+02   6.37484E+07   6.25000E+06
   1.13800E+02   6.49984E+07   6.25000E+06
   1.14000E+02   6.62484E+07   6.25000E+06
   1.14200E+02   6.74984E+07   6.25000E+06
   1.14400E+02   6.87483E+07   6.25000E+06
   1.14600E+02   6.99983E+07   6.25000E+06
   1.14800E+02   7.12483E+07   6.25000E+06
   1.15000E+02   7.24983E+07   6.25000E+06
   1.15200E+02   7.37483E+07   6.25000E+06
   1.15400E+02   7.49982E+07   6.25000E+06
   1.15600E+02   7.62482E+07   6.25000E+06
   1.15800E+02   7.74982E+07   6.25000E+06
   1.16000E+02   7.87482E+07   6.25000E+06
   1.16200E+02   7.99982E+07   6.25000E+06
   1.16400E+02   8.12482E+07   6.25000E+06
   1.16600E+02   8.24981E+07   6.25000E+06
   1.16800E+02   8.37481E+07   6.25000E+06
   1.17000E+02   8.49981E+07   6.25000E+06
   1.17200E+02   8.62481E+07   6.25000E+06
   1.17400E+02   8.74981E+07   6.25000E+06
   1.17600E+02   8.87480E+07   6.25000E+06
   1.17800E+02   8.99980E+07   6.25000E+06
   1.18000E+02   9.12480E+07   6.25000E+06
   1.18200E+02   9.24980E+07   6.25000E+06
   1.18400E+02   9.37480E+07   6.25000E+06
   1.18600E+02   9.49979E+07   6.25000E+06
   1.18800E+02   9.62479E+07   6.25000E+06
   1.19000E+02   9.74979E+07   6.25000E+06
   1.19200E+02   9.87479E+07   6.25000E+06
   1.19400E+02   9.99979E+07   6.25000E+06
   1.19600E+02   1.01248E+08   6.25000E+06
   1.19800E+02   1.02498E+08   6.25000E+06
   1.20000E+02   1.03748E+08   6.25000E+06
   1.20200E+02   1.04998E+08   6.25000E+06
   1.20400E+02   1.06248E+08   6.25000E+06
   1.20600E+02   1.07498E+08   6.25000E+06
   1.20800E+02   1.08748E+08   6.25000E+06
   1.21000E+02   1.09998E+08   6.25000E+06
   1.21200E+02   1.11248E+08   6.25000E+06
   1.21400E+02   1.12498E+08   6.25000E+06
   1.21600E+02   1.13748E+08   6.25000E+06
   1.21800E+02   1.14998E+08   6.25000E+06
   1.22000E+02   1.16248E+08   6.25000E+06
   1.22200E+02   1.17498E+08   6.25000E+06
   1.22400E+02   1.18748E+08   6.25000E+06
   1.22600E+02   1.19998E+08   6.25000E+06
   1.22800E+02   1.21248E+08   6.25000E+06
   1.23000E+02   1.22498E+08   6.25000E+06
   1.23200E+02   1.23748E+08   6.25000E+06
   1.23400E+02   1.24997E+08   6.25000E+06
   1.23600E+02   1.26247E+08   6.25000E+06
   1.23800E+02   1.27497E+08   6.25000E+06
   1.24000E+02   1.28747E+08   6.25000E+06
   1.24200E+02   1.29997E+08   6.25000E+06
   1.24400E+02   1.31247E+08   6.25000E+06
   1.24600E+02   1.32497E+08   6.25000E+06
   1.24800E+02   1.33747E+08   6.25000E+06
   1.25000E+02   1.34997E+08   6.25000E+06
   1.25200E+02   1.36247E+08   6.25000E+06
   1.25400E+02   1.37497E+08   6.25000E+06
   1.25600E+02   1.38747E+08   6.25000E+06
   1.25800E+02   1.39997E+08   6.25000E+06
   1.26000E+02   1.41247E+08   6.25000E+06
   1.26200E+02   1.42497E+08   6.25000E+06
   1.26400E+02   1.43747E+08   6.25000E+06
   1.26600E+02   1.44997E+08   6.25000E+06
   1.26800E+02   1.46247E+08   6.25000E+06
   1.27000E+02   1.47497E+08   6.25000E+06


 NUMBER OF CONNECTED LAKE SYSTEMS IN SIMULATION IS   0

 LAKE       PRECIP     EVAP     RUNOFF   WITHDRAW   BOTTOM     AREA
----------------------------------------------------------------------
   1     1.160E-02 1.030E-02 0.000E+00  0.000E+00 9.700E+01 6.250E+06




         C               INTERFACE CONDUCTANCES BETWEEN LAKE AND AQUIFER CELLS
   L     O          (IF TYPE = 6, CONDUCTANCE (L^2/T) IS BETWEEN AQUIFER CELL AND OVERLYING LAKE CELL.)
   A     L  L  T    (IF TYPE = 1 TO 4, CONDUCTANCES ARE PER UNIT SATURATED THICKNESS (L/T).)
   Y  R  U  A  Y
   E  O  M  K  P                        LAKEBED      C O N D U C T A N C E S
   R  W  N  E  E     DELTA Y   DELTA X  LEAKANCE   LAKEBED   AQUIFER  COMBINED
 _______________________________________________________________________________
   1  7  6  1  2    5.00E+02  1.00E+03  1.00E-01  5.00E+01  3.00E+01  1.88E+01
   1  8  6  1  2    5.00E+02  1.00E+03  1.00E-01  5.00E+01  3.00E+01  1.88E+01
   1  9  6  1  2    5.00E+02  1.00E+03  1.00E-01  5.00E+01  3.00E+01  1.88E+01
   1 10  6  1  2    5.00E+02  1.00E+03  1.00E-01  5.00E+01  3.00E+01  1.88E+01
   1 11  6  1  2    5.00E+02  1.00E+03  1.00E-01  5.00E+01  3.00E+01  1.88E+01
   1  6  7  1  3    1.00E+03  5.00E+02  1.00E-01  5.00E+01  3.00E+01  1.88E+01
   2  7  7  1  6    5.00E+02  5.00E+02  1.00E-01  2.50E+04  1.50E+06  2.46E+04
   2  8  7  1  6    5.00E+02  5.00E+02  1.00E-01  2.50E+04  1.50E+06  2.46E+04
   2  8  7  1  2    5.00E+02  5.00E+02  1.00E-01  5.00E+01  6.00E+01  2.73E+01
   2  9  7  1  6    5.00E+02  5.00E+02  1.00E-01  2.50E+04  1.50E+06  2.46E+04
   2  9  7  1  2    5.00E+02  5.00E+02  1.00E-01  5.00E+01  6.00E+01  2.73E+01
   2 10  7  1  6    5.00E+02  5.00E+02  1.00E-01  2.50E+04  1.50E+06  2.46E+04
   2 10  7  1  2    5.00E+02  5.00E+02  1.00E-01  5.00E+01  6.00E+01  2.73E+01
   2 11  7  1  6    5.00E+02  5.00E+02  1.00E-01  2.50E+04  1.50E+06  2.46E+04
   1 12  7  1  4    1.00E+03  5.00E+02  1.00E-01  5.00E+01  3.00E+01  1.88E+01
   1  6  8  1  3    1.00E+03  5.00E+02  1.00E-01  5.00E+01  3.00E+01  1.88E+01
   2  7  8  1  6    5.00E+02  5.00E+02  1.00E-01  2.50E+04  1.50E+06  2.46E+04
   2  7  8  1  3    5.00E+02  5.00E+02  1.00E-01  5.00E+01  6.00E+01  2.73E+01
   3  8  8  1  6    5.00E+02  5.00E+02  1.00E-01  2.50E+04  1.50E+06  2.46E+04
   3  9  8  1  6    5.00E+02  5.00E+02  1.00E-01  2.50E+04  1.50E+06  2.46E+04
   3 10  8  1  6    5.00E+02  5.00E+02  1.00E-01  2.50E+04  1.50E+06  2.46E+04
   2 11  8  1  6    5.00E+02  5.00E+02  1.00E-01  2.50E+04  1.50E+06  2.46E+04
   2 11  8  1  4    5.00E+02  5.00E+02  1.00E-01  5.00E+01  6.00E+01  2.73E+01
   1 12  8  1  4    1.00E+03  5.00E+02  1.00E-01  5.00E+01  3.00E+01  1.88E+01
   1  6  9  1  3    1.00E+03  5.00E+02  1.00E-01  5.00E+01  3.00E+01  1.88E+01
   2  7  9  1  6    5.00E+02  5.00E+02  1.00E-01  2.50E+04  1.50E+06  2.46E+04
   2  7  9  1  3    5.00E+02  5.00E+02  1.00E-01  5.00E+01  6.00E+01  2.73E+01
   3  8  9  1  6    5.00E+02  5.00E+02  1.00E-01  2.50E+04  1.50E+06  2.46E+04
   3  9  9  1  6    5.00E+02  5.00E+02  1.00E-01  2.50E+04  1.50E+06  2.46E+04
   3 10  9  1  6    5.00E+02  5.00E+02  1.00E-01  2.50E+04  1.50E+06  2.46E+04
   2 11  9  1  6    5.00E+02  5.00E+02  1.00E-01  2.50E+04  1.50E+06  2.46E+04
   2 11  9  1  4    5.00E+02  5.00E+02  1.00E-01  5.00E+01  6.00E+01  2.73E+01
   1 12  9  1  4    1.00E+03  5.00E+02  1.00E-01  5.00E+01  3.00E+01  1.88E+01
   1  6 10  1  3    1.00E+03  5.00E+02  1.00E-01  5.00E+01  3.00E+01  1.88E+01
   2  7 10  1  6    5.00E+02  5.00E+02  1.00E-01  2.50E+04  1.50E+06  2.46E+04
   2  7 10  1  3    5.00E+02  5.00E+02  1.00E-01  5.00E+01  6.00E+01  2.73E+01
   3  8 10  1  6    5.00E+02  5.00E+02  1.00E-01  2.50E+04  1.50E+06  2.46E+04
   3  9 10  1  6    5.00E+02  5.00E+02  1.00E-01  2.50E+04  1.50E+06  2.46E+04
   3 10 10  1  6    5.00E+02  5.00E+02  1.00E-01  2.50E+04  1.50E+06  2.46E+04
   2 11 10  1  6    5.00E+02  5.00E+02  1.00E-01  2.50E+04  1.50E+06  2.46E+04
   2 11 10  1  4    5.00E+02  5.00E+02  1.00E-01  5.00E+01  6.00E+01  2.73E+01
   1 12 10  1  4    1.00E+03  5.00E+02  1.00E-01  5.00E+01  3.00E+01  1.88E+01
   1  6 11  1  3    1.00E+03  5.00E+02  1.00E-01  5.00E+01  3.00E+01  1.88E+01
   2  7 11  1  6    5.00E+02  5.00E+02  1.00E-01  2.50E+04  1.50E+06  2.46E+04
   2  8 11  1  6    5.00E+02  5.00E+02  1.00E-01  2.50E+04  1.50E+06  2.46E+04
   2  8 11  1  1    5.00E+02  5.00E+02  1.00E-01  5.00E+01  6.00E+01  2.73E+01
   2  9 11  1  6    5.00E+02  5.00E+02  1.00E-01  2.50E+04  1.50E+06  2.46E+04
   2  9 11  1  1    5.00E+02  5.00E+02  1.00E-01  5.00E+01  6.00E+01  2.73E+01
   2 10 11  1  6    5.00E+02  5.00E+02  1.00E-01  2.50E+04  1.50E+06  2.46E+04
   2 10 11  1  1    5.00E+02  5.00E+02  1.00E-01  5.00E+01  6.00E+01  2.73E+01
   2 11 11  1  6    5.00E+02  5.00E+02  1.00E-01  2.50E+04  1.50E+06  2.46E+04
   1 12 11  1  4    1.00E+03  5.00E+02  1.00E-01  5.00E+01  3.00E+01  1.88E+01
   1  7 12  1  1    5.00E+02  1.00E+03  1.00E-01  5.00E+01  3.00E+01  1.88E+01
   1  8 12  1  1    5.00E+02  1.00E+03  1.00E-01  5.00E+01  3.00E+01  1.88E+01
   1  9 12  1  1    5.00E+02  1.00E+03  1.00E-01  5.00E+01  3.00E+01  1.88E+01
   1 10 12  1  1    5.00E+02  1.00E+03  1.00E-01  5.00E+01  3.00E+01  1.88E+01
   1 11 12  1  1    5.00E+02  1.00E+03  1.00E-01  5.00E+01  3.00E+01  1.88E+01


     NOTE: INFORMATION ABOUT CALCULATED LAKE/AQUIFER CONDUCTANCES WHEN USING BCF PACKAGE FOLLOWS: 

 IF WETDRY FLAG NOT TURNED ON, VERTICAL LEAKANCES ARE NOT SAVED:
 THEREFORE, LAKE/AQUIFER CONDUCTANCES ARE BASED SOLELY ON LAKEBED SPECIFICATION




 
 SOLVING FOR HEAD 
 ALL LAKES CONVERGED AFTER   2  ITERATIONS

 AVERAGE SEED = 0.00000194
 MINIMUM SEED = 0.00000137

     5 ITERATION PARAMETERS CALCULATED FROM AVERAGE SEED:

  0.000000E+00 0.962690E+00 0.998608E+00 0.999948E+00 0.999998E+00
 ALL LAKES CONVERGED AFTER   2  ITERATIONS
 ALL LAKES CONVERGED AFTER   2  ITERATIONS
 ALL LAKES CONVERGED AFTER   2  ITERATIONS
 ALL LAKES CONVERGED AFTER   2  ITERATIONS
 ALL LAKES CONVERGED AFTER   2  ITERATIONS
 ALL LAKES CONVERGED AFTER   2  ITERATIONS
 ALL LAKES CONVERGED AFTER   2  ITERATIONS
 ALL LAKES CONVERGED AFTER   2  ITERATIONS
 ALL LAKES CONVERGED AFTER   2  ITERATIONS
 ALL LAKES CONVERGED AFTER   2  ITERATIONS
 ALL LAKES CONVERGED AFTER   2  ITERATIONS
 ALL LAKES CONVERGED AFTER   2  ITERATIONS
 ALL LAKES CONVERGED AFTER   2  ITERATIONS
 ALL LAKES CONVERGED AFTER   2  ITERATIONS
 ALL LAKES CONVERGED AFTER   2  ITERATIONS
 ALL LAKES CONVERGED AFTER   2  ITERATIONS

    17 ITERATIONS FOR TIME STEP   1 IN STRESS PERIOD    1

 MAXIMUM HEAD CHANGE FOR EACH ITERATION:

    HEAD CHANGE   HEAD CHANGE   HEAD CHANGE   HEAD CHANGE   HEAD CHANGE
  LAYER,ROW,COL LAYER,ROW,COL LAYER,ROW,COL LAYER,ROW,COL LAYER,ROW,COL
 ----------------------------------------------------------------------
      11.30         2.624        0.9949       -0.2901       -0.3408    
  (  5, 16,  2) (  3, 16,  2) (  5,  9,  2) (  3,  8, 10) (  3, 10,  8)
    -0.8905E-01   -0.4628E-01   -0.1987E-01   -0.2281E-01   -0.5995E-02
  (  2,  7,  7) (  5, 10,  8) (  4,  8, 10) (  3, 10,  8) (  3,  8, 10)
    -0.6561E-02   -0.2179E-02   -0.1758E-02   -0.5046E-03   -0.5978E-03
  (  3,  8,  8) (  5,  9,  9) (  5, 10,  8) (  3,  8, 10) (  3, 10,  8)
    -0.1533E-03   -0.8620E-04
  (  2,  7,  7) (  5, 10,  8)


 HEAD/DRAWDOWN PRINTOUT FLAG = 0     TOTAL BUDGET PRINTOUT FLAG = 1
 CELL-BY-CELL FLOW TERM FLAG = 1

 OUTPUT FLAGS FOR ALL LAYERS ARE THE SAME:
   HEAD    DRAWDOWN  HEAD  DRAWDOWN
 PRINTOUT  PRINTOUT  SAVE    SAVE
 ----------------------------------
     0         0       0       0


     0  LAKE CELLS ARE DRY.

 PERIOD     1     TIME STEP     1     TIME STEP LENGTH  1.6014E+01
 PERIOD TIME  1.6014E+01     TOTAL SIMULATION TIME  1.6014E+01


                 HYDROLOGIC BUDGET SUMMARIES FOR SIMULATED LAKES
     (ALL FLUID FLUXES ARE VOLUMES ADDED TO THE LAKE DURING PRESENT TIME STEP)
     ----------------------------------------------------------------------------------------
 LAKE    STAGE       PRECIP         EVAP         RUNOFF
   1  1.102691E+02  1.160996E+06  1.030884E+06  0.000000E+00

            GROUND WATER            SURFACE WATER
 LAKE    INFLOW     OUTFLOW      INFLOW     OUTFLOW
   1  1.5518E+06  0.0000E+00  0.0000E+00  0.0000E+00

         WATER    CONNECTED LAKE   UPDATED     TIME-STEP          STAGE CHANGE
 LAKE     USE         INFLUX        VOLUME    SURFACE AREA   TIME STEP  CUMULATIVE
   1   0.0000E+00   0.0000E+00   4.2932E+07    6.2500E+06   2.6914E-01  2.6914E-01
 --------------------------------------------------------------------------------



            CUMULATIVE HYDROLOGIC BUDGET SUMMARIES FOR SIMULATED LAKES
     (ALL FLUID FLUXES ARE SUMS OF VOLUMES ADDED TO THE LAKE SINCE INITIAL TIME)
     ---------------------------------------------------------------------------
 LAKE       PRECIP       EVAP       RUNOFF
   1     1.1610E+06  1.0309E+06  0.0000E+00

            GROUND WATER            SURFACE WATER
 LAKE    INFLOW     OUTFLOW      INFLOW     OUTFLOW
   1  1.5518E+06  0.0000E+00  0.0000E+00  0.0000E+00

         WATER    CONNECTED LAKE
 LAKE     USE         INFLUX
   1   0.0000E+00   0.0000E+00
 --------------------------------------------------------------------------------

1
  VOLUMETRIC BUDGET FOR ENTIRE MODEL AT END OF TIME STEP  1 IN STRESS PERIOD   1
  ------------------------------------------------------------------------------

     CUMULATIVE VOLUMES      L**3       RATES FOR THIS TIME STEP      L**3/T
     ------------------                 ------------------------

           IN:                                      IN:
           ---                                      ---
             STORAGE =       32205.5820               STORAGE =        2011.1222
       CONSTANT HEAD =    61556832.0000         CONSTANT HEAD =     3844001.7500
                  ET =           0.0000                    ET =           0.0000
            RECHARGE =    27863902.0000              RECHARGE =     1740000.0000
     SPECIFIED FLOWS =           0.0000       SPECIFIED FLOWS =           0.0000
       LAKE  SEEPAGE =           0.0000         LAKE  SEEPAGE =           0.0000

            TOTAL IN =    89452936.0000              TOTAL IN =     5586013.0000

          OUT:                                     OUT:
          ----                                     ----
             STORAGE =    87901136.0000               STORAGE =     5489108.5000
       CONSTANT HEAD =           0.0000         CONSTANT HEAD =           0.0000
                  ET =           0.0000                    ET =           0.0000
            RECHARGE =           0.0000              RECHARGE =           0.0000
     SPECIFIED FLOWS =           0.0000       SPECIFIED FLOWS =           0.0000
       LAKE  SEEPAGE =     1551774.2500         LAKE  SEEPAGE =       96902.6953

           TOTAL OUT =    89452912.0000             TOTAL OUT =     5586011.0000

            IN - OUT =          24.0000              IN - OUT =           2.0000

 PERCENT DISCREPANCY =           0.00     PERCENT DISCREPANCY =           0.00






          TIME SUMMARY AT END OF TIME STEP   1 IN STRESS PERIOD    1
                    SECONDS     MINUTES      HOURS       DAYS        YEARS
                    -----------------------------------------------------------
   TIME STEP LENGTH 1.38359E+06  23060.      384.33      16.014     4.38432E-02
 STRESS PERIOD TIME 1.38359E+06  23060.      384.33      16.014     4.38432E-02
         TOTAL TIME 1.38359E+06  23060.      384.33      16.014     4.38432E-02
1
 
 SOLVING FOR HEAD 
 ALL LAKES CONVERGED AFTER   2  ITERATIONS
 ALL LAKES CONVERGED AFTER   2  ITERATIONS
 ALL LAKES CONVERGED AFTER   2  ITERATIONS
 ALL LAKES CONVERGED AFTER   2  ITERATIONS
 ALL LAKES CONVERGED AFTER   2  ITERATIONS
 ALL LAKES CONVERGED AFTER   2  ITERATIONS
 ALL LAKES CONVERGED AFTER   2  ITERATIONS
 ALL LAKES CONVERGED AFTER   2  ITERATIONS
 ALL LAKES CONVERGED AFTER   2  ITERATIONS
 ALL LAKES CONVERGED AFTER   2  ITERATIONS
 ALL LAKES CONVERGED AFTER   2  ITERATIONS
 ALL LAKES CONVERGED AFTER   2  ITERATIONS
 ALL LAKES CONVERGED AFTER   2  ITERATIONS
 ALL LAKES CONVERGED AFTER   1  ITERATIONS
    14 ITERATIONS FOR TIME STEP   2 IN STRESS PERIOD    1

 MAXIMUM HEAD CHANGE FOR EACH ITERATION:

    HEAD CHANGE   HEAD CHANGE   HEAD CHANGE   HEAD CHANGE   HEAD CHANGE
  LAYER,ROW,COL LAYER,ROW,COL LAYER,ROW,COL LAYER,ROW,COL LAYER,ROW,COL
 ----------------------------------------------------------------------
      8.299         2.350        0.8296        0.1189        0.2243E-01
  (  1,  2,  2) (  5, 10,  2) (  5,  9,  2) (  3, 10,  2) (  3, 10,  8)
     0.5966E-02    0.3143E-02    0.1366E-02    0.1573E-02    0.4238E-03
  (  2,  7,  7) (  5, 10,  8) (  4,  8, 10) (  3, 10,  8) (  2,  8, 11)
     0.4589E-03    0.1537E-03    0.1275E-03    0.3882E-04
  (  2,  7,  7) (  5,  9,  9) (  5, 10,  8) (  2,  9, 11)


 HEAD/DRAWDOWN PRINTOUT FLAG = 0     TOTAL BUDGET PRINTOUT FLAG = 0
 CELL-BY-CELL FLOW TERM FLAG = 1

 OUTPUT FLAGS FOR ALL LAYERS ARE THE SAME:
   HEAD    DRAWDOWN  HEAD  DRAWDOWN
 PRINTOUT  PRINTOUT  SAVE    SAVE
 ----------------------------------
     0         0       0       0


     0  LAKE CELLS ARE DRY.

 PERIOD     1     TIME STEP     2     TIME STEP LENGTH  1.6334E+01
 PERIOD TIME  3.2348E+01     TOTAL SIMULATION TIME  3.2348E+01


                 HYDROLOGIC BUDGET SUMMARIES FOR SIMULATED LAKES
     (ALL FLUID FLUXES ARE VOLUMES ADDED TO THE LAKE DURING PRESENT TIME STEP)
     ----------------------------------------------------------------------------------------
 LAKE    STAGE       PRECIP         EVAP         RUNOFF
   1  1.105452E+02  1.184216E+06  1.051502E+06  0.000000E+00

            GROUND WATER            SURFACE WATER
 LAKE    INFLOW     OUTFLOW      INFLOW     OUTFLOW
   1  1.5927E+06  0.0000E+00  0.0000E+00  0.0000E+00

         WATER    CONNECTED LAKE   UPDATED     TIME-STEP          STAGE CHANGE
 LAKE     USE         INFLUX        VOLUME    SURFACE AREA   TIME STEP  CUMULATIVE
   1   0.0000E+00   0.0000E+00   4.4657E+07    6.2500E+06   2.7602E-01  5.4516E-01
 --------------------------------------------------------------------------------



            CUMULATIVE HYDROLOGIC BUDGET SUMMARIES FOR SIMULATED LAKES
     (ALL FLUID FLUXES ARE SUMS OF VOLUMES ADDED TO THE LAKE SINCE INITIAL TIME)
     ---------------------------------------------------------------------------
 LAKE       PRECIP       EVAP       RUNOFF
   1     2.3452E+06  2.0824E+06  0.0000E+00

            GROUND WATER            SURFACE WATER
 LAKE    INFLOW     OUTFLOW      INFLOW     OUTFLOW
   1  3.1444E+06  0.0000E+00  0.0000E+00  0.0000E+00

         WATER    CONNECTED LAKE
 LAKE     USE         INFLUX
   1   0.0000E+00   0.0000E+00
 --------------------------------------------------------------------------------

 
 SOLVING FOR HEAD 
 ALL LAKES CONVERGED AFTER   2  ITERATIONS
 ALL LAKES CONVERGED AFTER   2  ITERATIONS
 ALL LAKES CONVERGED AFTER   2  ITERATIONS
 ALL LAKES CONVERGED AFTER   2  ITERATIONS
 ALL LAKES CONVERGED AFTER   2  ITERATIONS
 ALL LAKES CONVERGED AFTER   2  ITERATIONS
 ALL LAKES CONVERGED AFTER   2  ITERATIONS
 ALL LAKES CONVERGED AFTER   2  ITERATIONS
 ALL LAKES CONVERGED AFTER   2  ITERATIONS
 ALL LAKES CONVERGED AFTER   2  ITERATIONS
 ALL LAKES CONVERGED AFTER   2  ITERATIONS
 ALL LAKES CONVERGED AFTER   2  ITERATIONS
 ALL LAKES CONVERGED AFTER   2  ITERATIONS
 ALL LAKES CONVERGED AFTER   1  ITERATIONS
    14 ITERATIONS FOR TIME STEP   3 IN STRESS PERIOD    1

 MAXIMUM HEAD CHANGE FOR EACH ITERATION:

    HEAD CHANGE   HEAD CHANGE   HEAD CHANGE   HEAD CHANGE   HEAD CHANGE
  LAYER,ROW,COL LAYER,ROW,COL LAYER,ROW,COL LAYER,ROW,COL LAYER,ROW,COL
 ----------------------------------------------------------------------
      5.425         2.033        0.6705        0.9136E-01    0.2445E-01
  (  1,  2,  2) (  5, 10,  2) (  5,  8,  2) (  3, 11,  2) (  3, 10,  8)
     0.6587E-02    0.3500E-02    0.1534E-02    0.1775E-02    0.4735E-03
  (  2,  7,  7) (  5, 10,  8) (  4,  8, 10) (  3, 10,  8) (  2,  8, 11)
     0.5239E-03    0.1770E-03    0.1477E-03    0.4813E-04
  (  2,  7,  7) (  5,  9,  9) (  5, 10,  8) (  2,  7, 11)


 HEAD/DRAWDOWN PRINTOUT FLAG = 0     TOTAL BUDGET PRINTOUT FLAG = 0
 CELL-BY-CELL FLOW TERM FLAG = 1

 OUTPUT FLAGS FOR ALL LAYERS ARE THE SAME:
   HEAD    DRAWDOWN  HEAD  DRAWDOWN
 PRINTOUT  PRINTOUT  SAVE    SAVE
 ----------------------------------
     0         0       0       0


     0  LAKE CELLS ARE DRY.

 PERIOD     1     TIME STEP     3     TIME STEP LENGTH  1.6661E+01
 PERIOD TIME  4.9008E+01     TOTAL SIMULATION TIME  4.9008E+01


                 HYDROLOGIC BUDGET SUMMARIES FOR SIMULATED LAKES
     (ALL FLUID FLUXES ARE VOLUMES ADDED TO THE LAKE DURING PRESENT TIME STEP)
     ----------------------------------------------------------------------------------------
 LAKE    STAGE       PRECIP         EVAP         RUNOFF
   1  1.108370E+02  1.207900E+06  1.072532E+06  0.000000E+00

            GROUND WATER            SURFACE WATER
 LAKE    INFLOW     OUTFLOW      INFLOW     OUTFLOW
   1  1.6884E+06  0.0000E+00  0.0000E+00  0.0000E+00

         WATER    CONNECTED LAKE   UPDATED     TIME-STEP          STAGE CHANGE
 LAKE     USE         INFLUX        VOLUME    SURFACE AREA   TIME STEP  CUMULATIVE
   1   0.0000E+00   0.0000E+00   4.6481E+07    6.2500E+06   2.9182E-01  8.3698E-01
 --------------------------------------------------------------------------------



            CUMULATIVE HYDROLOGIC BUDGET SUMMARIES FOR SIMULATED LAKES
     (ALL FLUID FLUXES ARE SUMS OF VOLUMES ADDED TO THE LAKE SINCE INITIAL TIME)
     ---------------------------------------------------------------------------
 LAKE       PRECIP       EVAP       RUNOFF
   1     3.5531E+06  3.1549E+06  0.0000E+00

            GROUND WATER            SURFACE WATER
 LAKE    INFLOW     OUTFLOW      INFLOW     OUTFLOW
   1  4.8329E+06  0.0000E+00  0.0000E+00  0.0000E+00

         WATER    CONNECTED LAKE
 LAKE     USE         INFLUX
   1   0.0000E+00   0.0000E+00
 --------------------------------------------------------------------------------

 
 SOLVING FOR HEAD 
 ALL LAKES CONVERGED AFTER   2  ITERATIONS
 ALL LAKES CONVERGED AFTER   2  ITERATIONS
 ALL LAKES CONVERGED AFTER   2  ITERATIONS
 ALL LAKES CONVERGED AFTER   2  ITERATIONS
 ALL LAKES CONVERGED AFTER   2  ITERATIONS
 ALL LAKES CONVERGED AFTER   2  ITERATIONS
 ALL LAKES CONVERGED AFTER   2  ITERATIONS
 ALL LAKES CONVERGED AFTER   2  ITERATIONS
 ALL LAKES CONVERGED AFTER   2  ITERATIONS
 ALL LAKES CONVERGED AFTER   2  ITERATIONS
 ALL LAKES CONVERGED AFTER   2  ITERATIONS
 ALL LAKES CONVERGED AFTER   2  ITERATIONS
 ALL LAKES CONVERGED AFTER   2  ITERATIONS
 ALL LAKES CONVERGED AFTER   1  ITERATIONS
    14 ITERATIONS FOR TIME STEP   4 IN STRESS PERIOD    1

 MAXIMUM HEAD CHANGE FOR EACH ITERATION:

    HEAD CHANGE   HEAD CHANGE   HEAD CHANGE   HEAD CHANGE   HEAD CHANGE
  LAYER,ROW,COL LAYER,ROW,COL LAYER,ROW,COL LAYER,ROW,COL LAYER,ROW,COL
 ----------------------------------------------------------------------
      3.706         1.686        0.5344        0.7213E-01    0.2667E-01
  (  1,  3,  2) (  5, 10,  2) (  5,  8,  2) (  3, 11,  2) (  3, 10,  8)
     0.7281E-02    0.3902E-02    0.1722E-02    0.1996E-02    0.5521E-03
  (  2,  7,  7) (  5, 10,  8) (  4,  8, 10) (  3, 10,  8) (  2,  8, 11)
     0.5989E-03    0.2100E-03    0.1620E-03    0.5040E-04
  (  2,  7,  7) (  5,  9,  9) (  5, 10,  8) (  3,  8, 10)


 HEAD/DRAWDOWN PRINTOUT FLAG = 0     TOTAL BUDGET PRINTOUT FLAG = 0
 CELL-BY-CELL FLOW TERM FLAG = 1

 OUTPUT FLAGS FOR ALL LAYERS ARE THE SAME:
   HEAD    DRAWDOWN  HEAD  DRAWDOWN
 PRINTOUT  PRINTOUT  SAVE    SAVE
 ----------------------------------
     0         0       0       0


     0  LAKE CELLS ARE DRY.

 PERIOD     1     TIME STEP     4     TIME STEP LENGTH  1.6994E+01
 PERIOD TIME  6.6002E+01     TOTAL SIMULATION TIME  6.6002E+01


                 HYDROLOGIC BUDGET SUMMARIES FOR SIMULATED LAKES
     (ALL FLUID FLUXES ARE VOLUMES ADDED TO THE LAKE DURING PRESENT TIME STEP)
     ----------------------------------------------------------------------------------------
 LAKE    STAGE       PRECIP         EVAP         RUNOFF
   1  1.111473E+02  1.232058E+06  1.093983E+06  0.000000E+00

            GROUND WATER            SURFACE WATER
 LAKE    INFLOW     OUTFLOW      INFLOW     OUTFLOW
   1  1.8017E+06  0.0000E+00  0.0000E+00  0.0000E+00

         WATER    CONNECTED LAKE   UPDATED     TIME-STEP          STAGE CHANGE
 LAKE     USE         INFLUX        VOLUME    SURFACE AREA   TIME STEP  CUMULATIVE
   1   0.0000E+00   0.0000E+00   4.8421E+07    6.2500E+06   3.1036E-01  1.1473E+00
 --------------------------------------------------------------------------------



            CUMULATIVE HYDROLOGIC BUDGET SUMMARIES FOR SIMULATED LAKES
     (ALL FLUID FLUXES ARE SUMS OF VOLUMES ADDED TO THE LAKE SINCE INITIAL TIME)
     ---------------------------------------------------------------------------
 LAKE       PRECIP       EVAP       RUNOFF
   1     4.7852E+06  4.2489E+06  0.0000E+00

            GROUND WATER            SURFACE WATER
 LAKE    INFLOW     OUTFLOW      INFLOW     OUTFLOW
   1  6.6346E+06  0.0000E+00  0.0000E+00  0.0000E+00

         WATER    CONNECTED LAKE
 LAKE     USE         INFLUX
   1   0.0000E+00   0.0000E+00
 --------------------------------------------------------------------------------

 
 SOLVING FOR HEAD 
 ALL LAKES CONVERGED AFTER   2  ITERATIONS
 ALL LAKES CONVERGED AFTER   2  ITERATIONS
 ALL LAKES CONVERGED AFTER   2  ITERATIONS
 ALL LAKES CONVERGED AFTER   2  ITERATIONS
 ALL LAKES CONVERGED AFTER   2  ITERATIONS
 ALL LAKES CONVERGED AFTER   2  ITERATIONS
 ALL LAKES CONVERGED AFTER   2  ITERATIONS
 ALL LAKES CONVERGED AFTER   2  ITERATIONS
 ALL LAKES CONVERGED AFTER   2  ITERATIONS
 ALL LAKES CONVERGED AFTER   2  ITERATIONS
 ALL LAKES CONVERGED AFTER   2  ITERATIONS
 ALL LAKES CONVERGED AFTER   2  ITERATIONS
 ALL LAKES CONVERGED AFTER   2  ITERATIONS
 ALL LAKES CONVERGED AFTER   2  ITERATIONS
    14 ITERATIONS FOR TIME STEP   5 IN STRESS PERIOD    1

 MAXIMUM HEAD CHANGE FOR EACH ITERATION:

    HEAD CHANGE   HEAD CHANGE   HEAD CHANGE   HEAD CHANGE   HEAD CHANGE
  LAYER,ROW,COL LAYER,ROW,COL LAYER,ROW,COL LAYER,ROW,COL LAYER,ROW,COL
 ----------------------------------------------------------------------
      2.791         1.369        0.5129        0.6695E-01    0.2914E-01
  (  1, 15,  3) (  5, 10,  2) (  5,  8,  3) (  4, 10,  3) (  3, 10,  8)
     0.8043E-02    0.4346E-02    0.1941E-02    0.2255E-02    0.6227E-03
  (  2,  7,  7) (  5, 10,  8) (  4,  8, 10) (  3, 10,  8) (  3,  8, 10)
     0.6853E-03    0.2353E-03    0.1931E-03    0.6050E-04
  (  3,  8,  8) (  5,  9,  9) (  5, 10,  8) (  3,  8, 10)


 HEAD/DRAWDOWN PRINTOUT FLAG = 0     TOTAL BUDGET PRINTOUT FLAG = 0
 CELL-BY-CELL FLOW TERM FLAG = 1

 OUTPUT FLAGS FOR ALL LAYERS ARE THE SAME:
   HEAD    DRAWDOWN  HEAD  DRAWDOWN
 PRINTOUT  PRINTOUT  SAVE    SAVE
 ----------------------------------
     0         0       0       0


     0  LAKE CELLS ARE DRY.

 PERIOD     1     TIME STEP     5     TIME STEP LENGTH  1.7334E+01
 PERIOD TIME  8.3336E+01     TOTAL SIMULATION TIME  8.3336E+01


                 HYDROLOGIC BUDGET SUMMARIES FOR SIMULATED LAKES
     (ALL FLUID FLUXES ARE VOLUMES ADDED TO THE LAKE DURING PRESENT TIME STEP)
     ----------------------------------------------------------------------------------------
 LAKE    STAGE       PRECIP         EVAP         RUNOFF
   1  1.114789E+02  1.256699E+06  1.115862E+06  0.000000E+00

            GROUND WATER            SURFACE WATER
 LAKE    INFLOW     OUTFLOW      INFLOW     OUTFLOW
   1  1.9315E+06  0.0000E+00  0.0000E+00  0.0000E+00

         WATER    CONNECTED LAKE   UPDATED     TIME-STEP          STAGE CHANGE
 LAKE     USE         INFLUX        VOLUME    SURFACE AREA   TIME STEP  CUMULATIVE
   1   0.0000E+00   0.0000E+00   5.0493E+07    6.2500E+06   3.3152E-01  1.4789E+00
 --------------------------------------------------------------------------------



            CUMULATIVE HYDROLOGIC BUDGET SUMMARIES FOR SIMULATED LAKES
     (ALL FLUID FLUXES ARE SUMS OF VOLUMES ADDED TO THE LAKE SINCE INITIAL TIME)
     ---------------------------------------------------------------------------
 LAKE       PRECIP       EVAP       RUNOFF
   1     6.0419E+06  5.3648E+06  0.0000E+00

            GROUND WATER            SURFACE WATER
 LAKE    INFLOW     OUTFLOW      INFLOW     OUTFLOW
   1  8.5661E+06  0.0000E+00  0.0000E+00  0.0000E+00

         WATER    CONNECTED LAKE
 LAKE     USE         INFLUX
   1   0.0000E+00   0.0000E+00
 --------------------------------------------------------------------------------

 
 SOLVING FOR HEAD 
 ALL LAKES CONVERGED AFTER   2  ITERATIONS
 ALL LAKES CONVERGED AFTER   2  ITERATIONS
 ALL LAKES CONVERGED AFTER   2  ITERATIONS
 ALL LAKES CONVERGED AFTER   2  ITERATIONS
 ALL LAKES CONVERGED AFTER   2  ITERATIONS
 ALL LAKES CONVERGED AFTER   2  ITERATIONS
 ALL LAKES CONVERGED AFTER   2  ITERATIONS
 ALL LAKES CONVERGED AFTER   2  ITERATIONS
 ALL LAKES CONVERGED AFTER   2  ITERATIONS
 ALL LAKES CONVERGED AFTER   2  ITERATIONS
 ALL LAKES CONVERGED AFTER   2  ITERATIONS
 ALL LAKES CONVERGED AFTER   2  ITERATIONS
 ALL LAKES CONVERGED AFTER   2  ITERATIONS
 ALL LAKES CONVERGED AFTER   2  ITERATIONS
    14 ITERATIONS FOR TIME STEP   6 IN STRESS PERIOD    1

 MAXIMUM HEAD CHANGE FOR EACH ITERATION:

    HEAD CHANGE   HEAD CHANGE   HEAD CHANGE   HEAD CHANGE   HEAD CHANGE
  LAYER,ROW,COL LAYER,ROW,COL LAYER,ROW,COL LAYER,ROW,COL LAYER,ROW,COL
 ----------------------------------------------------------------------
      2.572         1.101        0.4798        0.6092E-01    0.3189E-01
  (  1,  3,  3) (  5, 11,  3) (  5,  8,  3) (  4, 11,  3) (  3, 10,  8)
     0.8918E-02    0.4859E-02    0.2192E-02    0.2552E-02    0.7127E-03
  (  2,  7,  7) (  5, 10,  8) (  4,  8, 10) (  4, 10,  8) (  3,  8, 10)
     0.7882E-03    0.2707E-03    0.2287E-03    0.7060E-04
  (  3,  8,  8) (  5,  9,  9) (  5, 10,  8) (  3,  8, 10)


 HEAD/DRAWDOWN PRINTOUT FLAG = 0     TOTAL BUDGET PRINTOUT FLAG = 0
 CELL-BY-CELL FLOW TERM FLAG = 1

 OUTPUT FLAGS FOR ALL LAYERS ARE THE SAME:
   HEAD    DRAWDOWN  HEAD  DRAWDOWN
 PRINTOUT  PRINTOUT  SAVE    SAVE
 ----------------------------------
     0         0       0       0


     0  LAKE CELLS ARE DRY.

 PERIOD     1     TIME STEP     6     TIME STEP LENGTH  1.7680E+01
 PERIOD TIME  1.0102E+02     TOTAL SIMULATION TIME  1.0102E+02


                 HYDROLOGIC BUDGET SUMMARIES FOR SIMULATED LAKES
     (ALL FLUID FLUXES ARE VOLUMES ADDED TO THE LAKE DURING PRESENT TIME STEP)
     ----------------------------------------------------------------------------------------
 LAKE    STAGE       PRECIP         EVAP         RUNOFF
   1  1.118342E+02  1.281833E+06  1.138180E+06  0.000000E+00

            GROUND WATER            SURFACE WATER
 LAKE    INFLOW     OUTFLOW      INFLOW     OUTFLOW
   1  2.0771E+06  0.0000E+00  0.0000E+00  0.0000E+00

         WATER    CONNECTED LAKE   UPDATED     TIME-STEP          STAGE CHANGE
 LAKE     USE         INFLUX        VOLUME    SURFACE AREA   TIME STEP  CUMULATIVE
   1   0.0000E+00   0.0000E+00   5.2713E+07    6.2500E+06   3.5530E-01  1.8342E+00
 --------------------------------------------------------------------------------



            CUMULATIVE HYDROLOGIC BUDGET SUMMARIES FOR SIMULATED LAKES
     (ALL FLUID FLUXES ARE SUMS OF VOLUMES ADDED TO THE LAKE SINCE INITIAL TIME)
     ---------------------------------------------------------------------------
 LAKE       PRECIP       EVAP       RUNOFF
   1     7.3237E+06  6.5029E+06  0.0000E+00

            GROUND WATER            SURFACE WATER
 LAKE    INFLOW     OUTFLOW      INFLOW     OUTFLOW
   1  1.0643E+07  0.0000E+00  0.0000E+00  0.0000E+00

         WATER    CONNECTED LAKE
 LAKE     USE         INFLUX
   1   0.0000E+00   0.0000E+00
 --------------------------------------------------------------------------------

 
 SOLVING FOR HEAD 
 ALL LAKES CONVERGED AFTER   2  ITERATIONS
 ALL LAKES CONVERGED AFTER   2  ITERATIONS
 ALL LAKES CONVERGED AFTER   2  ITERATIONS
 ALL LAKES CONVERGED AFTER   2  ITERATIONS
 ALL LAKES CONVERGED AFTER   2  ITERATIONS
 ALL LAKES CONVERGED AFTER   2  ITERATIONS
 ALL LAKES CONVERGED AFTER   2  ITERATIONS
 ALL LAKES CONVERGED AFTER   2  ITERATIONS
 ALL LAKES CONVERGED AFTER   2  ITERATIONS
 ALL LAKES CONVERGED AFTER   2  ITERATIONS
 ALL LAKES CONVERGED AFTER   2  ITERATIONS
 ALL LAKES CONVERGED AFTER   2  ITERATIONS
 ALL LAKES CONVERGED AFTER   2  ITERATIONS
 ALL LAKES CONVERGED AFTER   2  ITERATIONS
    14 ITERATIONS FOR TIME STEP   7 IN STRESS PERIOD    1

 MAXIMUM HEAD CHANGE FOR EACH ITERATION:

    HEAD CHANGE   HEAD CHANGE   HEAD CHANGE   HEAD CHANGE   HEAD CHANGE
  LAYER,ROW,COL LAYER,ROW,COL LAYER,ROW,COL LAYER,ROW,COL LAYER,ROW,COL
 ----------------------------------------------------------------------
      2.251         1.062        0.4504        0.5824E-01    0.3498E-01
  (  1,  3,  3) (  5, 11,  3) (  5,  8,  3) (  4, 11,  3) (  3, 10,  8)
     0.9896E-02    0.5434E-02    0.2483E-02    0.2895E-02    0.8229E-03
  (  2,  7,  7) (  5, 10,  8) (  4,  8, 10) (  3, 10,  8) (  3,  8, 10)
     0.9010E-03    0.3164E-03    0.2628E-03    0.8065E-04
  (  3,  8,  8) (  5,  9,  9) (  5, 10,  8) (  3,  8, 10)


 HEAD/DRAWDOWN PRINTOUT FLAG = 0     TOTAL BUDGET PRINTOUT FLAG = 0
 CELL-BY-CELL FLOW TERM FLAG = 1

 OUTPUT FLAGS FOR ALL LAYERS ARE THE SAME:
   HEAD    DRAWDOWN  HEAD  DRAWDOWN
 PRINTOUT  PRINTOUT  SAVE    SAVE
 ----------------------------------
     0         0       0       0


     0  LAKE CELLS ARE DRY.

 PERIOD     1     TIME STEP     7     TIME STEP LENGTH  1.8034E+01
 PERIOD TIME  1.1905E+02     TOTAL SIMULATION TIME  1.1905E+02


                 HYDROLOGIC BUDGET SUMMARIES FOR SIMULATED LAKES
     (ALL FLUID FLUXES ARE VOLUMES ADDED TO THE LAKE DURING PRESENT TIME STEP)
     ----------------------------------------------------------------------------------------
 LAKE    STAGE       PRECIP         EVAP         RUNOFF
   1  1.122159E+02  1.307470E+06  1.160943E+06  0.000000E+00

            GROUND WATER            SURFACE WATER
 LAKE    INFLOW     OUTFLOW      INFLOW     OUTFLOW
   1  2.2394E+06  0.0000E+00  0.0000E+00  0.0000E+00

         WATER    CONNECTED LAKE   UPDATED     TIME-STEP          STAGE CHANGE
 LAKE     USE         INFLUX        VOLUME    SURFACE AREA   TIME STEP  CUMULATIVE
   1   0.0000E+00   0.0000E+00   5.5099E+07    6.2500E+06   3.8174E-01  2.2159E+00
 --------------------------------------------------------------------------------



            CUMULATIVE HYDROLOGIC BUDGET SUMMARIES FOR SIMULATED LAKES
     (ALL FLUID FLUXES ARE SUMS OF VOLUMES ADDED TO THE LAKE SINCE INITIAL TIME)
     ---------------------------------------------------------------------------
 LAKE       PRECIP       EVAP       RUNOFF
   1     8.6312E+06  7.6639E+06  0.0000E+00

            GROUND WATER            SURFACE WATER
 LAKE    INFLOW     OUTFLOW      INFLOW     OUTFLOW
   1  1.2883E+07  0.0000E+00  0.0000E+00  0.0000E+00

         WATER    CONNECTED LAKE
 LAKE     USE         INFLUX
   1   0.0000E+00   0.0000E+00
 --------------------------------------------------------------------------------

 
 SOLVING FOR HEAD 
 ALL LAKES CONVERGED AFTER   2  ITERATIONS
 ALL LAKES CONVERGED AFTER   2  ITERATIONS
 ALL LAKES CONVERGED AFTER   2  ITERATIONS
 ALL LAKES CONVERGED AFTER   2  ITERATIONS
 ALL LAKES CONVERGED AFTER   2  ITERATIONS
 ALL LAKES CONVERGED AFTER   2  ITERATIONS
 ALL LAKES CONVERGED AFTER   2  ITERATIONS
 ALL LAKES CONVERGED AFTER   2  ITERATIONS
 ALL LAKES CONVERGED AFTER   2  ITERATIONS
 ALL LAKES CONVERGED AFTER   2  ITERATIONS
 ALL LAKES CONVERGED AFTER   2  ITERATIONS
 ALL LAKES CONVERGED AFTER   2  ITERATIONS
 ALL LAKES CONVERGED AFTER   2  ITERATIONS
 ALL LAKES CONVERGED AFTER   2  ITERATIONS
 ALL LAKES CONVERGED AFTER   1  ITERATIONS
 ALL LAKES CONVERGED AFTER   1  ITERATIONS
    16 ITERATIONS FOR TIME STEP   8 IN STRESS PERIOD    1

 MAXIMUM HEAD CHANGE FOR EACH ITERATION:

    HEAD CHANGE   HEAD CHANGE   HEAD CHANGE   HEAD CHANGE   HEAD CHANGE
  LAYER,ROW,COL LAYER,ROW,COL LAYER,ROW,COL LAYER,ROW,COL LAYER,ROW,COL
 ----------------------------------------------------------------------
      1.931         1.008        0.4192        0.5497E-01    0.3841E-01
  (  1, 14,  3) (  5, 11,  3) (  5,  8,  3) (  4, 11,  3) (  3, 10,  8)
     0.1100E-01    0.6083E-02    0.2816E-02    0.3286E-02    0.9438E-03
  (  2,  7,  7) (  5, 10,  8) (  4,  8, 10) (  3, 10,  8) (  3,  8, 10)
     0.1042E-02    0.3643E-03    0.3030E-03    0.1008E-03    0.1194E-03
  (  3,  8,  8) (  5,  9,  9) (  5, 10,  8) (  3,  8, 10) (  3, 10,  8)
     0.3777E-04
  (  2,  7,  7)


 HEAD/DRAWDOWN PRINTOUT FLAG = 0     TOTAL BUDGET PRINTOUT FLAG = 0
 CELL-BY-CELL FLOW TERM FLAG = 1

 OUTPUT FLAGS FOR ALL LAYERS ARE THE SAME:
   HEAD    DRAWDOWN  HEAD  DRAWDOWN
 PRINTOUT  PRINTOUT  SAVE    SAVE
 ----------------------------------
     0         0       0       0


     0  LAKE CELLS ARE DRY.

 PERIOD     1     TIME STEP     8     TIME STEP LENGTH  1.8395E+01
 PERIOD TIME  1.3745E+02     TOTAL SIMULATION TIME  1.3745E+02


                 HYDROLOGIC BUDGET SUMMARIES FOR SIMULATED LAKES
     (ALL FLUID FLUXES ARE VOLUMES ADDED TO THE LAKE DURING PRESENT TIME STEP)
     ----------------------------------------------------------------------------------------
 LAKE    STAGE       PRECIP         EVAP         RUNOFF
   1  1.126269E+02  1.333619E+06  1.184162E+06  0.000000E+00

            GROUND WATER            SURFACE WATER
 LAKE    INFLOW     OUTFLOW      INFLOW     OUTFLOW
   1  2.4197E+06  0.0000E+00  0.0000E+00  0.0000E+00

         WATER    CONNECTED LAKE   UPDATED     TIME-STEP          STAGE CHANGE
 LAKE     USE         INFLUX        VOLUME    SURFACE AREA   TIME STEP  CUMULATIVE
   1   0.0000E+00   0.0000E+00   5.7668E+07    6.2500E+06   4.1102E-01  2.6269E+00
 --------------------------------------------------------------------------------



            CUMULATIVE HYDROLOGIC BUDGET SUMMARIES FOR SIMULATED LAKES
     (ALL FLUID FLUXES ARE SUMS OF VOLUMES ADDED TO THE LAKE SINCE INITIAL TIME)
     ---------------------------------------------------------------------------
 LAKE       PRECIP       EVAP       RUNOFF
   1     9.9648E+06  8.8480E+06  0.0000E+00

            GROUND WATER            SURFACE WATER
 LAKE    INFLOW     OUTFLOW      INFLOW     OUTFLOW
   1  1.5302E+07  0.0000E+00  0.0000E+00  0.0000E+00

         WATER    CONNECTED LAKE
 LAKE     USE         INFLUX
   1   0.0000E+00   0.0000E+00
 --------------------------------------------------------------------------------

 
 SOLVING FOR HEAD 
 ALL LAKES CONVERGED AFTER   2  ITERATIONS
 ALL LAKES CONVERGED AFTER   2  ITERATIONS
 ALL LAKES CONVERGED AFTER   2  ITERATIONS
 ALL LAKES CONVERGED AFTER   2  ITERATIONS
 ALL LAKES CONVERGED AFTER   2  ITERATIONS
 ALL LAKES CONVERGED AFTER   2  ITERATIONS
 ALL LAKES CONVERGED AFTER   2  ITERATIONS
 ALL LAKES CONVERGED AFTER   2  ITERATIONS
 ALL LAKES CONVERGED AFTER   2  ITERATIONS
 ALL LAKES CONVERGED AFTER   2  ITERATIONS
 ALL LAKES CONVERGED AFTER   2  ITERATIONS
 ALL LAKES CONVERGED AFTER   2  ITERATIONS
 ALL LAKES CONVERGED AFTER   2  ITERATIONS
 ALL LAKES CONVERGED AFTER   2  ITERATIONS
 ALL LAKES CONVERGED AFTER   1  ITERATIONS
 ALL LAKES CONVERGED AFTER   1  ITERATIONS
    16 ITERATIONS FOR TIME STEP   9 IN STRESS PERIOD    1

 MAXIMUM HEAD CHANGE FOR EACH ITERATION:

    HEAD CHANGE   HEAD CHANGE   HEAD CHANGE   HEAD CHANGE   HEAD CHANGE
  LAYER,ROW,COL LAYER,ROW,COL LAYER,ROW,COL LAYER,ROW,COL LAYER,ROW,COL
 ----------------------------------------------------------------------
      1.720        0.9470        0.3897        0.5464E-01    0.4220E-01
  (  1,  4,  3) (  5, 11,  3) (  5,  8,  3) (  4, 10,  4) (  3, 10,  8)
     0.1222E-01    0.6824E-02    0.3191E-02    0.3725E-02    0.1084E-02
  (  2,  7,  7) (  5, 10,  8) (  4,  8, 10) (  3, 10,  8) (  3,  8, 10)
     0.1201E-02    0.4315E-03    0.3586E-03    0.1166E-03    0.1395E-03
  (  3,  8,  8) (  5,  9,  9) (  5, 10,  8) (  2,  7, 11) (  3, 10,  8)
     0.4578E-04
  (  3,  9,  9)


 HEAD/DRAWDOWN PRINTOUT FLAG = 0     TOTAL BUDGET PRINTOUT FLAG = 0
 CELL-BY-CELL FLOW TERM FLAG = 1

 OUTPUT FLAGS FOR ALL LAYERS ARE THE SAME:
   HEAD    DRAWDOWN  HEAD  DRAWDOWN
 PRINTOUT  PRINTOUT  SAVE    SAVE
 ----------------------------------
     0         0       0       0


     0  LAKE CELLS ARE DRY.

 PERIOD     1     TIME STEP     9     TIME STEP LENGTH  1.8763E+01
 PERIOD TIME  1.5621E+02     TOTAL SIMULATION TIME  1.5621E+02


                 HYDROLOGIC BUDGET SUMMARIES FOR SIMULATED LAKES
     (ALL FLUID FLUXES ARE VOLUMES ADDED TO THE LAKE DURING PRESENT TIME STEP)
     ----------------------------------------------------------------------------------------
 LAKE    STAGE       PRECIP         EVAP         RUNOFF
   1  1.130702E+02  1.360292E+06  1.207845E+06  0.000000E+00

            GROUND WATER            SURFACE WATER
 LAKE    INFLOW     OUTFLOW      INFLOW     OUTFLOW
   1  2.6183E+06  0.0000E+00  0.0000E+00  0.0000E+00

         WATER    CONNECTED LAKE   UPDATED     TIME-STEP          STAGE CHANGE
 LAKE     USE         INFLUX        VOLUME    SURFACE AREA   TIME STEP  CUMULATIVE
   1   0.0000E+00   0.0000E+00   6.0439E+07    6.2500E+06   4.4328E-01  3.0702E+00
 --------------------------------------------------------------------------------



            CUMULATIVE HYDROLOGIC BUDGET SUMMARIES FOR SIMULATED LAKES
     (ALL FLUID FLUXES ARE SUMS OF VOLUMES ADDED TO THE LAKE SINCE INITIAL TIME)
     ---------------------------------------------------------------------------
 LAKE       PRECIP       EVAP       RUNOFF
   1     1.1325E+07  1.0056E+07  0.0000E+00

            GROUND WATER            SURFACE WATER
 LAKE    INFLOW     OUTFLOW      INFLOW     OUTFLOW
   1  1.7921E+07  0.0000E+00  0.0000E+00  0.0000E+00

         WATER    CONNECTED LAKE
 LAKE     USE         INFLUX
   1   0.0000E+00   0.0000E+00
 --------------------------------------------------------------------------------

 
 SOLVING FOR HEAD 
 ALL LAKES CONVERGED AFTER   2  ITERATIONS
 ALL LAKES CONVERGED AFTER   2  ITERATIONS
 ALL LAKES CONVERGED AFTER   2  ITERATIONS
 ALL LAKES CONVERGED AFTER   2  ITERATIONS
 ALL LAKES CONVERGED AFTER   2  ITERATIONS
 ALL LAKES CONVERGED AFTER   2  ITERATIONS
 ALL LAKES CONVERGED AFTER   2  ITERATIONS
 ALL LAKES CONVERGED AFTER   2  ITERATIONS
 ALL LAKES CONVERGED AFTER   2  ITERATIONS
 ALL LAKES CONVERGED AFTER   2  ITERATIONS
 ALL LAKES CONVERGED AFTER   2  ITERATIONS
 ALL LAKES CONVERGED AFTER   2  ITERATIONS
 ALL LAKES CONVERGED AFTER   2  ITERATIONS
 ALL LAKES CONVERGED AFTER   2  ITERATIONS
 ALL LAKES CONVERGED AFTER   1  ITERATIONS
 ALL LAKES CONVERGED AFTER   2  ITERATIONS
    16 ITERATIONS FOR TIME STEP  10 IN STRESS PERIOD    1

 MAXIMUM HEAD CHANGE FOR EACH ITERATION:

    HEAD CHANGE   HEAD CHANGE   HEAD CHANGE   HEAD CHANGE   HEAD CHANGE
  LAYER,ROW,COL LAYER,ROW,COL LAYER,ROW,COL LAYER,ROW,COL LAYER,ROW,COL
 ----------------------------------------------------------------------
      1.591        0.8840        0.3714        0.5580E-01    0.4641E-01
  (  1, 14,  4) (  5, 11,  3) (  5,  8,  4) (  4, 11,  4) (  3, 10,  8)
     0.1359E-01    0.7652E-02    0.3608E-02    0.4233E-02    0.1235E-02
  (  2,  7,  7) (  5, 10,  8) (  4,  8, 10) (  3, 10,  8) (  3,  8, 10)
     0.1377E-02    0.4998E-03    0.4184E-03    0.1411E-03    0.1685E-03
  (  2,  7,  7) (  5,  9,  9) (  5, 10,  8) (  3,  8, 10) (  3, 10,  8)
     0.4779E-04
  (  2,  7,  7)


 HEAD/DRAWDOWN PRINTOUT FLAG = 1     TOTAL BUDGET PRINTOUT FLAG = 1
 CELL-BY-CELL FLOW TERM FLAG = 1

 OUTPUT FLAGS FOR EACH LAYER:
          HEAD    DRAWDOWN  HEAD  DRAWDOWN
 LAYER  PRINTOUT  PRINTOUT  SAVE    SAVE
 -----------------------------------------
    1       0         0       0       0
    2       0         0       0       0
    3       0         0       0       0
    4       0         0       0       0
    5       1         0       0       0


     0  LAKE CELLS ARE DRY.

 PERIOD     1     TIME STEP    10     TIME STEP LENGTH  1.9138E+01
 PERIOD TIME  1.7535E+02     TOTAL SIMULATION TIME  1.7535E+02


                 HYDROLOGIC BUDGET SUMMARIES FOR SIMULATED LAKES
     (ALL FLUID FLUXES ARE VOLUMES ADDED TO THE LAKE DURING PRESENT TIME STEP)
     ----------------------------------------------------------------------------------------
 LAKE    STAGE       PRECIP         EVAP         RUNOFF
   1  1.135488E+02  1.387497E+06  1.232002E+06  0.000000E+00

            GROUND WATER            SURFACE WATER
 LAKE    INFLOW     OUTFLOW      INFLOW     OUTFLOW
   1  2.8364E+06  0.0000E+00  0.0000E+00  0.0000E+00

         WATER    CONNECTED LAKE   UPDATED     TIME-STEP          STAGE CHANGE
 LAKE     USE         INFLUX        VOLUME    SURFACE AREA   TIME STEP  CUMULATIVE
   1   0.0000E+00   0.0000E+00   6.3430E+07    6.2500E+06   4.7864E-01  3.5488E+00
 --------------------------------------------------------------------------------



            CUMULATIVE HYDROLOGIC BUDGET SUMMARIES FOR SIMULATED LAKES
     (ALL FLUID FLUXES ARE SUMS OF VOLUMES ADDED TO THE LAKE SINCE INITIAL TIME)
     ---------------------------------------------------------------------------
 LAKE       PRECIP       EVAP       RUNOFF
   1     1.2713E+07  1.1288E+07  0.0000E+00

            GROUND WATER            SURFACE WATER
 LAKE    INFLOW     OUTFLOW      INFLOW     OUTFLOW
   1  2.0757E+07  0.0000E+00  0.0000E+00  0.0000E+00

         WATER    CONNECTED LAKE
 LAKE     USE         INFLUX
   1   0.0000E+00   0.0000E+00
 --------------------------------------------------------------------------------

1
              HEAD IN LAYER   5 AT END OF TIME STEP  10 IN STRESS PERIOD    1
  ---------------------------------------------------------------------------

          1      2      3      4      5      6      7      8      9     10
 .........................................................................
   1   160.0  158.9  157.3  155.8  154.2  152.7  151.5  150.8  150.0  149.2
   2   160.0  156.9  152.9  149.9  147.8  146.1  145.1  144.4  143.8  143.2
   3   160.0  154.5  147.0  141.7  138.6  136.9  136.1  135.7  135.3  134.9
   4   160.0  153.0  143.1  135.9  132.0  130.2  129.5  129.1  128.9  128.8
   5   160.0  152.3  141.1  132.8  128.5  126.4  125.4  125.0  124.8  124.8
   6   160.0  152.0  140.3  131.6  126.7  123.6  121.1  120.4  120.1  120.3
   7   160.0  151.9  140.0  131.1  125.9  121.2  113.8  113.5  113.5  113.5
   8   160.0  151.9  139.9  131.0  125.6  120.5  113.5  113.3  113.3  113.3
   9   160.0  151.9  139.9  130.9  125.5  120.3  113.5  113.3  113.3  113.3
  10   160.0  151.9  139.9  131.0  125.6  120.5  113.5  113.3  113.3  113.3
  11   160.0  151.9  140.0  131.1  125.9  121.2  113.8  113.5  113.5  113.5
  12   160.0  152.0  140.3  131.6  126.7  123.6  121.1  120.4  120.1  120.3
  13   160.0  152.3  141.1  132.8  128.5  126.4  125.4  125.0  124.8  124.8
  14   160.0  153.0  143.1  135.9  132.0  130.2  129.5  129.1  128.9  128.8
  15   160.0  154.5  147.0  141.7  138.6  136.9  136.1  135.7  135.3  134.9
  16   160.0  156.9  152.9  149.9  147.8  146.1  145.1  144.4  143.8  143.2
  17   160.0  158.9  157.3  155.8  154.2  152.7  151.5  150.8  150.0  149.2
1
              HEAD IN LAYER   5 AT END OF TIME STEP  10 IN STRESS PERIOD    1
  ---------------------------------------------------------------------------

         11     12     13     14     15     16     17
 ....................................................
   1   148.5  147.3  145.8  144.2  142.7  141.1  140.0
   2   142.5  141.6  140.5  139.6  139.1  139.3  140.0
   3   134.6  134.1  133.7  133.7  134.9  137.5  140.0
   4   128.7  128.8  129.1  130.2  132.4  136.5  140.0
   5   125.0  125.6  126.7  128.4  131.3  136.0  140.0
   6   120.9  123.1  125.3  127.5  130.9  135.9  140.0
   7   113.8  120.9  124.6  127.2  130.7  135.8  140.0
   8   113.5  120.2  124.3  127.1  130.7  135.8  140.0
   9   113.5  120.0  124.2  127.1  130.7  135.8  140.0
  10   113.5  120.2  124.3  127.1  130.7  135.8  140.0
  11   113.8  120.9  124.6  127.2  130.7  135.8  140.0
  12   120.9  123.1  125.3  127.5  130.9  135.9  140.0
  13   125.0  125.6  126.7  128.4  131.3  136.0  140.0
  14   128.7  128.8  129.1  130.2  132.4  136.5  140.0
  15   134.6  134.1  133.7  133.7  134.9  137.5  140.0
  16   142.5  141.6  140.5  139.6  139.1  139.3  140.0
  17   148.5  147.3  145.8  144.2  142.7  141.1  140.0
1
  VOLUMETRIC BUDGET FOR ENTIRE MODEL AT END OF TIME STEP 10 IN STRESS PERIOD   1
  ------------------------------------------------------------------------------

     CUMULATIVE VOLUMES      L**3       RATES FOR THIS TIME STEP      L**3/T
     ------------------                 ------------------------

           IN:                                      IN:
           ---                                      ---
             STORAGE =       32205.5820               STORAGE =           0.0000
       CONSTANT HEAD =   353149472.0000         CONSTANT HEAD =      949332.1875
                  ET =           0.0000                    ET =           0.0000
            RECHARGE =   305101920.0000              RECHARGE =     1740000.0000
     SPECIFIED FLOWS =           0.0000       SPECIFIED FLOWS =           0.0000
       LAKE  SEEPAGE =           0.0000         LAKE  SEEPAGE =           0.0000

            TOTAL IN =   658283584.0000              TOTAL IN =     2689332.2500

          OUT:                                     OUT:
          ----                                     ----
             STORAGE =   598512896.0000               STORAGE =     2040958.5000
       CONSTANT HEAD =           0.0000         CONSTANT HEAD =           0.0000
                  ET =    39011512.0000                    ET =      500164.1875
            RECHARGE =           0.0000              RECHARGE =           0.0000
     SPECIFIED FLOWS =           0.0000       SPECIFIED FLOWS =           0.0000
       LAKE  SEEPAGE =    20757046.0000         LAKE  SEEPAGE =      148208.2969

           TOTAL OUT =   658281472.0000             TOTAL OUT =     2689331.0000

            IN - OUT =        2112.0000              IN - OUT =           1.2500

 PERCENT DISCREPANCY =           0.00     PERCENT DISCREPANCY =           0.00






          TIME SUMMARY AT END OF TIME STEP  10 IN STRESS PERIOD    1
                    SECONDS     MINUTES      HOURS       DAYS        YEARS
                    -----------------------------------------------------------
   TIME STEP LENGTH 1.65351E+06  27559.      459.31      19.138     5.23967E-02
 STRESS PERIOD TIME 1.51499E+07 2.52498E+05  4208.3      175.35     0.48007    
         TOTAL TIME 1.51499E+07 2.52498E+05  4208.3      175.35     0.48007    
1
 
 SOLVING FOR HEAD 
 ALL LAKES CONVERGED AFTER   2  ITERATIONS
 ALL LAKES CONVERGED AFTER   2  ITERATIONS
 ALL LAKES CONVERGED AFTER   2  ITERATIONS
 ALL LAKES CONVERGED AFTER   2  ITERATIONS
 ALL LAKES CONVERGED AFTER   2  ITERATIONS
 ALL LAKES CONVERGED AFTER   2  ITERATIONS
 ALL LAKES CONVERGED AFTER   2  ITERATIONS
 ALL LAKES CONVERGED AFTER   2  ITERATIONS
 ALL LAKES CONVERGED AFTER   2  ITERATIONS
 ALL LAKES CONVERGED AFTER   2  ITERATIONS
 ALL LAKES CONVERGED AFTER   2  ITERATIONS
 ALL LAKES CONVERGED AFTER   2  ITERATIONS
 ALL LAKES CONVERGED AFTER   2  ITERATIONS
 ALL LAKES CONVERGED AFTER   2  ITERATIONS
 ALL LAKES CONVERGED AFTER   1  ITERATIONS
 ALL LAKES CONVERGED AFTER   2  ITERATIONS
    16 ITERATIONS FOR TIME STEP  11 IN STRESS PERIOD    1

 MAXIMUM HEAD CHANGE FOR EACH ITERATION:

    HEAD CHANGE   HEAD CHANGE   HEAD CHANGE   HEAD CHANGE   HEAD CHANGE
  LAYER,ROW,COL LAYER,ROW,COL LAYER,ROW,COL LAYER,ROW,COL LAYER,ROW,COL
 ----------------------------------------------------------------------
      1.487        0.8231        0.3714        0.5676E-01    0.5102E-01
  (  1,  4,  4) (  5, 11,  3) (  5,  8,  4) (  4, 11,  4) (  3, 10,  8)
     0.1512E-01    0.8573E-02    0.4086E-02    0.4796E-02    0.1426E-02
  (  2,  7,  7) (  5, 10,  8) (  4,  8, 10) (  3, 10,  8) (  3,  8, 10)
     0.1586E-02    0.5713E-03    0.4849E-03    0.1613E-03    0.1979E-03
  (  3,  8,  8) (  5,  9,  9) (  5, 10,  8) (  3,  8, 10) (  3, 10,  8)
     0.6274E-04
  (  2,  9,  7)


 HEAD/DRAWDOWN PRINTOUT FLAG = 0     TOTAL BUDGET PRINTOUT FLAG = 0
 CELL-BY-CELL FLOW TERM FLAG = 1

 OUTPUT FLAGS FOR ALL LAYERS ARE THE SAME:
   HEAD    DRAWDOWN  HEAD  DRAWDOWN
 PRINTOUT  PRINTOUT  SAVE    SAVE
 ----------------------------------
     0         0       0       0


     0  LAKE CELLS ARE DRY.

 PERIOD     1     TIME STEP    11     TIME STEP LENGTH  1.9521E+01
 PERIOD TIME  1.9487E+02     TOTAL SIMULATION TIME  1.9487E+02


                 HYDROLOGIC BUDGET SUMMARIES FOR SIMULATED LAKES
     (ALL FLUID FLUXES ARE VOLUMES ADDED TO THE LAKE DURING PRESENT TIME STEP)
     ----------------------------------------------------------------------------------------
 LAKE    STAGE       PRECIP         EVAP         RUNOFF
   1  1.140660E+02  1.415247E+06  1.256642E+06  0.000000E+00

            GROUND WATER            SURFACE WATER
 LAKE    INFLOW     OUTFLOW      INFLOW     OUTFLOW
   1  3.0743E+06  0.0000E+00  0.0000E+00  0.0000E+00

         WATER    CONNECTED LAKE   UPDATED     TIME-STEP          STAGE CHANGE
 LAKE     USE         INFLUX        VOLUME    SURFACE AREA   TIME STEP  CUMULATIVE
   1   0.0000E+00   0.0000E+00   6.6663E+07    6.2500E+06   5.1721E-01  4.0660E+00
 --------------------------------------------------------------------------------



            CUMULATIVE HYDROLOGIC BUDGET SUMMARIES FOR SIMULATED LAKES
     (ALL FLUID FLUXES ARE SUMS OF VOLUMES ADDED TO THE LAKE SINCE INITIAL TIME)
     ---------------------------------------------------------------------------
 LAKE       PRECIP       EVAP       RUNOFF
   1     1.4128E+07  1.2545E+07  0.0000E+00

            GROUND WATER            SURFACE WATER
 LAKE    INFLOW     OUTFLOW      INFLOW     OUTFLOW
   1  2.3831E+07  0.0000E+00  0.0000E+00  0.0000E+00

         WATER    CONNECTED LAKE
 LAKE     USE         INFLUX
   1   0.0000E+00   0.0000E+00
 --------------------------------------------------------------------------------

 
 SOLVING FOR HEAD 
 ALL LAKES CONVERGED AFTER   2  ITERATIONS
 ALL LAKES CONVERGED AFTER   2  ITERATIONS
 ALL LAKES CONVERGED AFTER   2  ITERATIONS
 ALL LAKES CONVERGED AFTER   2  ITERATIONS
 ALL LAKES CONVERGED AFTER   2  ITERATIONS
 ALL LAKES CONVERGED AFTER   2  ITERATIONS
 ALL LAKES CONVERGED AFTER   2  ITERATIONS
 ALL LAKES CONVERGED AFTER   2  ITERATIONS
 ALL LAKES CONVERGED AFTER   2  ITERATIONS
 ALL LAKES CONVERGED AFTER   2  ITERATIONS
 ALL LAKES CONVERGED AFTER   2  ITERATIONS
 ALL LAKES CONVERGED AFTER   2  ITERATIONS
 ALL LAKES CONVERGED AFTER   2  ITERATIONS
 ALL LAKES CONVERGED AFTER   2  ITERATIONS
 ALL LAKES CONVERGED AFTER   1  ITERATIONS
 ALL LAKES CONVERGED AFTER   2  ITERATIONS
    16 ITERATIONS FOR TIME STEP  12 IN STRESS PERIOD    1

 MAXIMUM HEAD CHANGE FOR EACH ITERATION:

    HEAD CHANGE   HEAD CHANGE   HEAD CHANGE   HEAD CHANGE   HEAD CHANGE
  LAYER,ROW,COL LAYER,ROW,COL LAYER,ROW,COL LAYER,ROW,COL LAYER,ROW,COL
 ----------------------------------------------------------------------
      1.356        0.7920        0.3617        0.5526E-01    0.5604E-01
  (  1,  4,  4) (  5, 11,  4) (  5,  8,  4) (  4, 11,  4) (  3, 10,  8)
     0.1679E-01    0.9602E-02    0.4608E-02    0.5437E-02    0.1629E-02
  (  2,  7,  7) (  5, 10,  8) (  4,  8, 10) (  3, 10,  8) (  2,  8, 11)
     0.1812E-02    0.6722E-03    0.5735E-03    0.1916E-03    0.2289E-03
  (  3,  8,  8) (  5,  9,  9) (  5, 10,  8) (  3,  8, 10) (  3, 10,  8)
     0.7352E-04
  (  3,  9,  9)


 HEAD/DRAWDOWN PRINTOUT FLAG = 0     TOTAL BUDGET PRINTOUT FLAG = 0
 CELL-BY-CELL FLOW TERM FLAG = 1

 OUTPUT FLAGS FOR ALL LAYERS ARE THE SAME:
   HEAD    DRAWDOWN  HEAD  DRAWDOWN
 PRINTOUT  PRINTOUT  SAVE    SAVE
 ----------------------------------
     0         0       0       0


     0  LAKE CELLS ARE DRY.

 PERIOD     1     TIME STEP    12     TIME STEP LENGTH  1.9911E+01
 PERIOD TIME  2.1478E+02     TOTAL SIMULATION TIME  2.1478E+02


                 HYDROLOGIC BUDGET SUMMARIES FOR SIMULATED LAKES
     (ALL FLUID FLUXES ARE VOLUMES ADDED TO THE LAKE DURING PRESENT TIME STEP)
     ----------------------------------------------------------------------------------------
 LAKE    STAGE       PRECIP         EVAP         RUNOFF
   1  1.146249E+02  1.443552E+06  1.281775E+06  0.000000E+00

            GROUND WATER            SURFACE WATER
 LAKE    INFLOW     OUTFLOW      INFLOW     OUTFLOW
   1  3.3318E+06  0.0000E+00  0.0000E+00  0.0000E+00

         WATER    CONNECTED LAKE   UPDATED     TIME-STEP          STAGE CHANGE
 LAKE     USE         INFLUX        VOLUME    SURFACE AREA   TIME STEP  CUMULATIVE
   1   0.0000E+00   0.0000E+00   7.0156E+07    6.2500E+06   5.5887E-01  4.6249E+00
 --------------------------------------------------------------------------------



            CUMULATIVE HYDROLOGIC BUDGET SUMMARIES FOR SIMULATED LAKES
     (ALL FLUID FLUXES ARE SUMS OF VOLUMES ADDED TO THE LAKE SINCE INITIAL TIME)
     ---------------------------------------------------------------------------
 LAKE       PRECIP       EVAP       RUNOFF
   1     1.5571E+07  1.3826E+07  0.0000E+00

            GROUND WATER            SURFACE WATER
 LAKE    INFLOW     OUTFLOW      INFLOW     OUTFLOW
   1  2.7163E+07  0.0000E+00  0.0000E+00  0.0000E+00

         WATER    CONNECTED LAKE
 LAKE     USE         INFLUX
   1   0.0000E+00   0.0000E+00
 --------------------------------------------------------------------------------

 
 SOLVING FOR HEAD 
 ALL LAKES CONVERGED AFTER   2  ITERATIONS
 ALL LAKES CONVERGED AFTER   2  ITERATIONS
 ALL LAKES CONVERGED AFTER   2  ITERATIONS
 ALL LAKES CONVERGED AFTER   2  ITERATIONS
 ALL LAKES CONVERGED AFTER   2  ITERATIONS
 ALL LAKES CONVERGED AFTER   2  ITERATIONS
 ALL LAKES CONVERGED AFTER   2  ITERATIONS
 ALL LAKES CONVERGED AFTER   2  ITERATIONS
 ALL LAKES CONVERGED AFTER   2  ITERATIONS
 ALL LAKES CONVERGED AFTER   2  ITERATIONS
 ALL LAKES CONVERGED AFTER   2  ITERATIONS
 ALL LAKES CONVERGED AFTER   2  ITERATIONS
 ALL LAKES CONVERGED AFTER   2  ITERATIONS
 ALL LAKES CONVERGED AFTER   2  ITERATIONS
 ALL LAKES CONVERGED AFTER   1  ITERATIONS
 ALL LAKES CONVERGED AFTER   2  ITERATIONS
    16 ITERATIONS FOR TIME STEP  13 IN STRESS PERIOD    1

 MAXIMUM HEAD CHANGE FOR EACH ITERATION:

    HEAD CHANGE   HEAD CHANGE   HEAD CHANGE   HEAD CHANGE   HEAD CHANGE
  LAYER,ROW,COL LAYER,ROW,COL LAYER,ROW,COL LAYER,ROW,COL LAYER,ROW,COL
 ----------------------------------------------------------------------
      1.252        0.7714        0.3505        0.5476E-01    0.6144E-01
  (  1, 13,  4) (  5, 11,  4) (  5,  8,  4) (  4, 11,  4) (  3, 10,  8)
     0.1861E-01    0.1072E-01    0.5200E-02    0.6144E-02    0.1868E-02
  (  2,  7,  7) (  5, 10,  8) (  4,  8, 10) (  3, 10,  8) (  3,  8, 10)
     0.2083E-02    0.7760E-03    0.6591E-03    0.2258E-03    0.2684E-03
  (  3,  8,  8) (  5,  9,  9) (  5, 10,  8) (  2,  8, 11) (  3, 10,  8)
     0.8583E-04
  (  2,  7,  7)


 HEAD/DRAWDOWN PRINTOUT FLAG = 0     TOTAL BUDGET PRINTOUT FLAG = 0
 CELL-BY-CELL FLOW TERM FLAG = 1

 OUTPUT FLAGS FOR ALL LAYERS ARE THE SAME:
   HEAD    DRAWDOWN  HEAD  DRAWDOWN
 PRINTOUT  PRINTOUT  SAVE    SAVE
 ----------------------------------
     0         0       0       0


     0  LAKE CELLS ARE DRY.

 PERIOD     1     TIME STEP    13     TIME STEP LENGTH  2.0309E+01
 PERIOD TIME  2.3509E+02     TOTAL SIMULATION TIME  2.3509E+02


                 HYDROLOGIC BUDGET SUMMARIES FOR SIMULATED LAKES
     (ALL FLUID FLUXES ARE VOLUMES ADDED TO THE LAKE DURING PRESENT TIME STEP)
     ----------------------------------------------------------------------------------------
 LAKE    STAGE       PRECIP         EVAP         RUNOFF
   1  1.152284E+02  1.472423E+06  1.307410E+06  0.000000E+00

            GROUND WATER            SURFACE WATER
 LAKE    INFLOW     OUTFLOW      INFLOW     OUTFLOW
   1  3.6072E+06  0.0000E+00  0.0000E+00  0.0000E+00

         WATER    CONNECTED LAKE   UPDATED     TIME-STEP          STAGE CHANGE
 LAKE     USE         INFLUX        VOLUME    SURFACE AREA   TIME STEP  CUMULATIVE
   1   0.0000E+00   0.0000E+00   7.3927E+07    6.2500E+06   6.0349E-01  5.2284E+00
 --------------------------------------------------------------------------------



            CUMULATIVE HYDROLOGIC BUDGET SUMMARIES FOR SIMULATED LAKES
     (ALL FLUID FLUXES ARE SUMS OF VOLUMES ADDED TO THE LAKE SINCE INITIAL TIME)
     ---------------------------------------------------------------------------
 LAKE       PRECIP       EVAP       RUNOFF
   1     1.7044E+07  1.5134E+07  0.0000E+00

            GROUND WATER            SURFACE WATER
 LAKE    INFLOW     OUTFLOW      INFLOW     OUTFLOW
   1  3.0770E+07  0.0000E+00  0.0000E+00  0.0000E+00

         WATER    CONNECTED LAKE
 LAKE     USE         INFLUX
   1   0.0000E+00   0.0000E+00
 --------------------------------------------------------------------------------

 
 SOLVING FOR HEAD 
 ALL LAKES CONVERGED AFTER   2  ITERATIONS
 ALL LAKES CONVERGED AFTER   2  ITERATIONS
 ALL LAKES CONVERGED AFTER   2  ITERATIONS
 ALL LAKES CONVERGED AFTER   2  ITERATIONS
 ALL LAKES CONVERGED AFTER   2  ITERATIONS
 ALL LAKES CONVERGED AFTER   2  ITERATIONS
 ALL LAKES CONVERGED AFTER   2  ITERATIONS
 ALL LAKES CONVERGED AFTER   2  ITERATIONS
 ALL LAKES CONVERGED AFTER   2  ITERATIONS
 ALL LAKES CONVERGED AFTER   2  ITERATIONS
 ALL LAKES CONVERGED AFTER   2  ITERATIONS
 ALL LAKES CONVERGED AFTER   2  ITERATIONS
 ALL LAKES CONVERGED AFTER   2  ITERATIONS
 ALL LAKES CONVERGED AFTER   2  ITERATIONS
 ALL LAKES CONVERGED AFTER   2  ITERATIONS
 ALL LAKES CONVERGED AFTER   2  ITERATIONS
    16 ITERATIONS FOR TIME STEP  14 IN STRESS PERIOD    1

 MAXIMUM HEAD CHANGE FOR EACH ITERATION:

    HEAD CHANGE   HEAD CHANGE   HEAD CHANGE   HEAD CHANGE   HEAD CHANGE
  LAYER,ROW,COL LAYER,ROW,COL LAYER,ROW,COL LAYER,ROW,COL LAYER,ROW,COL
 ----------------------------------------------------------------------
      1.147        0.7447        0.3379        0.5632E-01    0.6720E-01
  (  1, 13,  4) (  5, 11,  4) (  5,  8,  4) (  3,  7,  9) (  3, 10,  8)
     0.2057E-01    0.1194E-01    0.5854E-02    0.6925E-02    0.2129E-02
  (  2,  7,  7) (  5, 10,  8) (  4,  8, 10) (  3, 10,  8) (  3,  8, 10)
     0.2374E-02    0.8906E-03    0.7691E-03    0.2622E-03    0.3179E-03
  (  3,  8,  8) (  5,  9,  9) (  5, 10,  8) (  3,  8, 10) (  3, 10,  8)
     0.9612E-04
  (  2,  7,  7)


 HEAD/DRAWDOWN PRINTOUT FLAG = 0     TOTAL BUDGET PRINTOUT FLAG = 0
 CELL-BY-CELL FLOW TERM FLAG = 1

 OUTPUT FLAGS FOR ALL LAYERS ARE THE SAME:
   HEAD    DRAWDOWN  HEAD  DRAWDOWN
 PRINTOUT  PRINTOUT  SAVE    SAVE
 ----------------------------------
     0         0       0       0


     0  LAKE CELLS ARE DRY.

 PERIOD     1     TIME STEP    14     TIME STEP LENGTH  2.0715E+01
 PERIOD TIME  2.5580E+02     TOTAL SIMULATION TIME  2.5580E+02


                 HYDROLOGIC BUDGET SUMMARIES FOR SIMULATED LAKES
     (ALL FLUID FLUXES ARE VOLUMES ADDED TO THE LAKE DURING PRESENT TIME STEP)
     ----------------------------------------------------------------------------------------
 LAKE    STAGE       PRECIP         EVAP         RUNOFF
   1  1.158789E+02  1.501872E+06  1.333558E+06  0.000000E+00

            GROUND WATER            SURFACE WATER
 LAKE    INFLOW     OUTFLOW      INFLOW     OUTFLOW
   1  3.8979E+06  0.0000E+00  0.0000E+00  0.0000E+00

         WATER    CONNECTED LAKE   UPDATED     TIME-STEP          STAGE CHANGE
 LAKE     USE         INFLUX        VOLUME    SURFACE AREA   TIME STEP  CUMULATIVE
   1   0.0000E+00   0.0000E+00   7.7993E+07    6.2500E+06   6.5047E-01  5.8789E+00
 --------------------------------------------------------------------------------



            CUMULATIVE HYDROLOGIC BUDGET SUMMARIES FOR SIMULATED LAKES
     (ALL FLUID FLUXES ARE SUMS OF VOLUMES ADDED TO THE LAKE SINCE INITIAL TIME)
     ---------------------------------------------------------------------------
 LAKE       PRECIP       EVAP       RUNOFF
   1     1.8546E+07  1.6467E+07  0.0000E+00

            GROUND WATER            SURFACE WATER
 LAKE    INFLOW     OUTFLOW      INFLOW     OUTFLOW
   1  3.4668E+07  0.0000E+00  0.0000E+00  0.0000E+00

         WATER    CONNECTED LAKE
 LAKE     USE         INFLUX
   1   0.0000E+00   0.0000E+00
 --------------------------------------------------------------------------------

 
 SOLVING FOR HEAD 
 ALL LAKES CONVERGED AFTER   2  ITERATIONS
 ALL LAKES CONVERGED AFTER   2  ITERATIONS
 ALL LAKES CONVERGED AFTER   2  ITERATIONS
 ALL LAKES CONVERGED AFTER   2  ITERATIONS
 ALL LAKES CONVERGED AFTER   2  ITERATIONS
 ALL LAKES CONVERGED AFTER   2  ITERATIONS
 ALL LAKES CONVERGED AFTER   2  ITERATIONS
 ALL LAKES CONVERGED AFTER   2  ITERATIONS
 ALL LAKES CONVERGED AFTER   2  ITERATIONS
 ALL LAKES CONVERGED AFTER   2  ITERATIONS
 ALL LAKES CONVERGED AFTER   2  ITERATIONS
 ALL LAKES CONVERGED AFTER   2  ITERATIONS
 ALL LAKES CONVERGED AFTER   2  ITERATIONS
 ALL LAKES CONVERGED AFTER   2  ITERATIONS
 ALL LAKES CONVERGED AFTER   2  ITERATIONS
 ALL LAKES CONVERGED AFTER   2  ITERATIONS
 ALL LAKES CONVERGED AFTER   2  ITERATIONS
    17 ITERATIONS FOR TIME STEP  15 IN STRESS PERIOD    1

 MAXIMUM HEAD CHANGE FOR EACH ITERATION:

    HEAD CHANGE   HEAD CHANGE   HEAD CHANGE   HEAD CHANGE   HEAD CHANGE
  LAYER,ROW,COL LAYER,ROW,COL LAYER,ROW,COL LAYER,ROW,COL LAYER,ROW,COL
 ----------------------------------------------------------------------
      1.076        0.7126        0.3246        0.6118E-01    0.7321E-01
  (  1, 13,  5) (  5, 11,  4) (  5,  8,  4) (  3,  7,  9) (  3, 10,  8)
     0.2265E-01    0.1324E-01    0.6550E-02    0.7775E-02    0.2419E-02
  (  2,  7,  7) (  5, 10,  8) (  4,  8, 10) (  3, 10,  8) (  3,  8, 10)
     0.2702E-02    0.1026E-02    0.8843E-03    0.3048E-03    0.3683E-03
  (  3,  8,  8) (  5,  9,  9) (  5, 10,  8) (  2,  9, 11) (  3, 10,  8)
     0.1152E-03    0.7150E-04
  (  2,  7,  7) (  5, 10,  8)


 HEAD/DRAWDOWN PRINTOUT FLAG = 0     TOTAL BUDGET PRINTOUT FLAG = 0
 CELL-BY-CELL FLOW TERM FLAG = 1

 OUTPUT FLAGS FOR ALL LAYERS ARE THE SAME:
   HEAD    DRAWDOWN  HEAD  DRAWDOWN
 PRINTOUT  PRINTOUT  SAVE    SAVE
 ----------------------------------
     0         0       0       0


     0  LAKE CELLS ARE DRY.

 PERIOD     1     TIME STEP    15     TIME STEP LENGTH  2.1130E+01
 PERIOD TIME  2.7693E+02     TOTAL SIMULATION TIME  2.7693E+02


                 HYDROLOGIC BUDGET SUMMARIES FOR SIMULATED LAKES
     (ALL FLUID FLUXES ARE VOLUMES ADDED TO THE LAKE DURING PRESENT TIME STEP)
     ----------------------------------------------------------------------------------------
 LAKE    STAGE       PRECIP         EVAP         RUNOFF
   1  1.165783E+02  1.531909E+06  1.360230E+06  0.000000E+00

            GROUND WATER            SURFACE WATER
 LAKE    INFLOW     OUTFLOW      INFLOW     OUTFLOW
   1  4.1999E+06  0.0000E+00  0.0000E+00  0.0000E+00

         WATER    CONNECTED LAKE   UPDATED     TIME-STEP          STAGE CHANGE
 LAKE     USE         INFLUX        VOLUME    SURFACE AREA   TIME STEP  CUMULATIVE
   1   0.0000E+00   0.0000E+00   8.2364E+07    6.2500E+06   6.9940E-01  6.5783E+00
 --------------------------------------------------------------------------------



            CUMULATIVE HYDROLOGIC BUDGET SUMMARIES FOR SIMULATED LAKES
     (ALL FLUID FLUXES ARE SUMS OF VOLUMES ADDED TO THE LAKE SINCE INITIAL TIME)
     ---------------------------------------------------------------------------
 LAKE       PRECIP       EVAP       RUNOFF
   1     2.0078E+07  1.7828E+07  0.0000E+00

            GROUND WATER            SURFACE WATER
 LAKE    INFLOW     OUTFLOW      INFLOW     OUTFLOW
   1  3.8868E+07  0.0000E+00  0.0000E+00  0.0000E+00

         WATER    CONNECTED LAKE
 LAKE     USE         INFLUX
   1   0.0000E+00   0.0000E+00
 --------------------------------------------------------------------------------

 
 SOLVING FOR HEAD 
 ALL LAKES CONVERGED AFTER   2  ITERATIONS
 ALL LAKES CONVERGED AFTER   2  ITERATIONS
 ALL LAKES CONVERGED AFTER   2  ITERATIONS
 ALL LAKES CONVERGED AFTER   2  ITERATIONS
 ALL LAKES CONVERGED AFTER   2  ITERATIONS
 ALL LAKES CONVERGED AFTER   2  ITERATIONS
 ALL LAKES CONVERGED AFTER   2  ITERATIONS
 ALL LAKES CONVERGED AFTER   2  ITERATIONS
 ALL LAKES CONVERGED AFTER   2  ITERATIONS
 ALL LAKES CONVERGED AFTER   2  ITERATIONS
 ALL LAKES CONVERGED AFTER   2  ITERATIONS
 ALL LAKES CONVERGED AFTER   2  ITERATIONS
 ALL LAKES CONVERGED AFTER   2  ITERATIONS
 ALL LAKES CONVERGED AFTER   2  ITERATIONS
 ALL LAKES CONVERGED AFTER   2  ITERATIONS
 ALL LAKES CONVERGED AFTER   2  ITERATIONS
 ALL LAKES CONVERGED AFTER   2  ITERATIONS
    17 ITERATIONS FOR TIME STEP  16 IN STRESS PERIOD    1

 MAXIMUM HEAD CHANGE FOR EACH ITERATION:

    HEAD CHANGE   HEAD CHANGE   HEAD CHANGE   HEAD CHANGE   HEAD CHANGE
  LAYER,ROW,COL LAYER,ROW,COL LAYER,ROW,COL LAYER,ROW,COL LAYER,ROW,COL
 ----------------------------------------------------------------------
     0.9994        0.6417        0.3088        0.6612E-01    0.7940E-01
  (  1, 13,  5) (  5, 11,  4) (  5,  9,  5) (  3,  7,  9) (  3, 10,  8)
     0.2482E-01    0.1460E-01    0.7297E-02    0.8681E-02    0.2721E-02
  (  2,  7,  7) (  5, 10,  8) (  4,  8, 10) (  3, 10,  8) (  3,  8, 10)
     0.3050E-02    0.1165E-02    0.1009E-02    0.3529E-03    0.4286E-03
  (  3,  8,  8) (  5,  9,  9) (  5, 10,  8) (  3,  8, 10) (  3, 10,  8)
     0.1346E-03    0.7885E-04
  (  2,  7,  7) (  5, 11,  9)


 HEAD/DRAWDOWN PRINTOUT FLAG = 0     TOTAL BUDGET PRINTOUT FLAG = 0
 CELL-BY-CELL FLOW TERM FLAG = 1

 OUTPUT FLAGS FOR ALL LAYERS ARE THE SAME:
   HEAD    DRAWDOWN  HEAD  DRAWDOWN
 PRINTOUT  PRINTOUT  SAVE    SAVE
 ----------------------------------
     0         0       0       0


     0  LAKE CELLS ARE DRY.

 PERIOD     1     TIME STEP    16     TIME STEP LENGTH  2.1552E+01
 PERIOD TIME  2.9848E+02     TOTAL SIMULATION TIME  2.9848E+02


                 HYDROLOGIC BUDGET SUMMARIES FOR SIMULATED LAKES
     (ALL FLUID FLUXES ARE VOLUMES ADDED TO THE LAKE DURING PRESENT TIME STEP)
     ----------------------------------------------------------------------------------------
 LAKE    STAGE       PRECIP         EVAP         RUNOFF
   1  1.173272E+02  1.562547E+06  1.387434E+06  0.000000E+00

            GROUND WATER            SURFACE WATER
 LAKE    INFLOW     OUTFLOW      INFLOW     OUTFLOW
   1  4.5064E+06  0.0000E+00  0.0000E+00  0.0000E+00

         WATER    CONNECTED LAKE   UPDATED     TIME-STEP          STAGE CHANGE
 LAKE     USE         INFLUX        VOLUME    SURFACE AREA   TIME STEP  CUMULATIVE
   1   0.0000E+00   0.0000E+00   8.7045E+07    6.2500E+06   7.4894E-01  7.3272E+00
 --------------------------------------------------------------------------------



            CUMULATIVE HYDROLOGIC BUDGET SUMMARIES FOR SIMULATED LAKES
     (ALL FLUID FLUXES ARE SUMS OF VOLUMES ADDED TO THE LAKE SINCE INITIAL TIME)
     ---------------------------------------------------------------------------
 LAKE       PRECIP       EVAP       RUNOFF
   1     2.1640E+07  1.9215E+07  0.0000E+00

            GROUND WATER            SURFACE WATER
 LAKE    INFLOW     OUTFLOW      INFLOW     OUTFLOW
   1  4.3375E+07  0.0000E+00  0.0000E+00  0.0000E+00

         WATER    CONNECTED LAKE
 LAKE     USE         INFLUX
   1   0.0000E+00   0.0000E+00
 --------------------------------------------------------------------------------

 
 SOLVING FOR HEAD 
 ALL LAKES CONVERGED AFTER   2  ITERATIONS
 ALL LAKES CONVERGED AFTER   2  ITERATIONS
 ALL LAKES CONVERGED AFTER   2  ITERATIONS
 ALL LAKES CONVERGED AFTER   2  ITERATIONS
 ALL LAKES CONVERGED AFTER   2  ITERATIONS
 ALL LAKES CONVERGED AFTER   2  ITERATIONS
 ALL LAKES CONVERGED AFTER   2  ITERATIONS
 ALL LAKES CONVERGED AFTER   2  ITERATIONS
 ALL LAKES CONVERGED AFTER   2  ITERATIONS
 ALL LAKES CONVERGED AFTER   2  ITERATIONS
 ALL LAKES CONVERGED AFTER   2  ITERATIONS
 ALL LAKES CONVERGED AFTER   2  ITERATIONS
 ALL LAKES CONVERGED AFTER   2  ITERATIONS
 ALL LAKES CONVERGED AFTER   2  ITERATIONS
 ALL LAKES CONVERGED AFTER   2  ITERATIONS
 ALL LAKES CONVERGED AFTER   2  ITERATIONS
 ALL LAKES CONVERGED AFTER   2  ITERATIONS
    17 ITERATIONS FOR TIME STEP  17 IN STRESS PERIOD    1

 MAXIMUM HEAD CHANGE FOR EACH ITERATION:

    HEAD CHANGE   HEAD CHANGE   HEAD CHANGE   HEAD CHANGE   HEAD CHANGE
  LAYER,ROW,COL LAYER,ROW,COL LAYER,ROW,COL LAYER,ROW,COL LAYER,ROW,COL
 ----------------------------------------------------------------------
     0.8814        0.6200        0.2990        0.7104E-01    0.8559E-01
  (  1, 12,  5) (  5, 11,  5) (  5,  8,  5) (  3,  7,  9) (  3, 10,  8)
     0.2703E-01    0.1602E-01    0.8066E-02    0.9627E-02    0.3053E-02
  (  2,  7,  7) (  5, 10,  8) (  4,  8, 10) (  3, 10,  8) (  3,  8, 10)
     0.3433E-02    0.1323E-02    0.1148E-02    0.4129E-03    0.4972E-03
  (  2,  7,  7) (  5,  9,  9) (  5, 10,  8) (  3,  8, 10) (  3, 10,  8)
     0.1606E-03    0.9599E-04
  (  2,  7,  8) (  5, 10,  8)


 HEAD/DRAWDOWN PRINTOUT FLAG = 0     TOTAL BUDGET PRINTOUT FLAG = 0
 CELL-BY-CELL FLOW TERM FLAG = 1

 OUTPUT FLAGS FOR ALL LAYERS ARE THE SAME:
   HEAD    DRAWDOWN  HEAD  DRAWDOWN
 PRINTOUT  PRINTOUT  SAVE    SAVE
 ----------------------------------
     0         0       0       0


     0  LAKE CELLS ARE DRY.

 PERIOD     1     TIME STEP    17     TIME STEP LENGTH  2.1983E+01
 PERIOD TIME  3.2047E+02     TOTAL SIMULATION TIME  3.2047E+02


                 HYDROLOGIC BUDGET SUMMARIES FOR SIMULATED LAKES
     (ALL FLUID FLUXES ARE VOLUMES ADDED TO THE LAKE DURING PRESENT TIME STEP)
     ----------------------------------------------------------------------------------------
 LAKE    STAGE       PRECIP         EVAP         RUNOFF
   1  1.181253E+02  1.593798E+06  1.415183E+06  0.000000E+00

            GROUND WATER            SURFACE WATER
 LAKE    INFLOW     OUTFLOW      INFLOW     OUTFLOW
   1  4.8103E+06  0.0000E+00  0.0000E+00  0.0000E+00

         WATER    CONNECTED LAKE   UPDATED     TIME-STEP          STAGE CHANGE
 LAKE     USE         INFLUX        VOLUME    SURFACE AREA   TIME STEP  CUMULATIVE
   1   0.0000E+00   0.0000E+00   9.2033E+07    6.2500E+06   7.9810E-01  8.1253E+00
 --------------------------------------------------------------------------------



            CUMULATIVE HYDROLOGIC BUDGET SUMMARIES FOR SIMULATED LAKES
     (ALL FLUID FLUXES ARE SUMS OF VOLUMES ADDED TO THE LAKE SINCE INITIAL TIME)
     ---------------------------------------------------------------------------
 LAKE       PRECIP       EVAP       RUNOFF
   1     2.3234E+07  2.0630E+07  0.0000E+00

            GROUND WATER            SURFACE WATER
 LAKE    INFLOW     OUTFLOW      INFLOW     OUTFLOW
   1  4.8185E+07  0.0000E+00  0.0000E+00  0.0000E+00

         WATER    CONNECTED LAKE
 LAKE     USE         INFLUX
   1   0.0000E+00   0.0000E+00
 --------------------------------------------------------------------------------

 
 SOLVING FOR HEAD 
 ALL LAKES CONVERGED AFTER   2  ITERATIONS
 ALL LAKES CONVERGED AFTER   2  ITERATIONS
 ALL LAKES CONVERGED AFTER   2  ITERATIONS
 ALL LAKES CONVERGED AFTER   2  ITERATIONS
 ALL LAKES CONVERGED AFTER   2  ITERATIONS
 ALL LAKES CONVERGED AFTER   2  ITERATIONS
 ALL LAKES CONVERGED AFTER   2  ITERATIONS
 ALL LAKES CONVERGED AFTER   2  ITERATIONS
 ALL LAKES CONVERGED AFTER   2  ITERATIONS
 ALL LAKES CONVERGED AFTER   2  ITERATIONS
 ALL LAKES CONVERGED AFTER   2  ITERATIONS
 ALL LAKES CONVERGED AFTER   2  ITERATIONS
 ALL LAKES CONVERGED AFTER   2  ITERATIONS
 ALL LAKES CONVERGED AFTER   2  ITERATIONS
 ALL LAKES CONVERGED AFTER   2  ITERATIONS
 ALL LAKES CONVERGED AFTER   2  ITERATIONS
 ALL LAKES CONVERGED AFTER   2  ITERATIONS
 ALL LAKES CONVERGED AFTER   2  ITERATIONS
    18 ITERATIONS FOR TIME STEP  18 IN STRESS PERIOD    1

 MAXIMUM HEAD CHANGE FOR EACH ITERATION:

    HEAD CHANGE   HEAD CHANGE   HEAD CHANGE   HEAD CHANGE   HEAD CHANGE
  LAYER,ROW,COL LAYER,ROW,COL LAYER,ROW,COL LAYER,ROW,COL LAYER,ROW,COL
 ----------------------------------------------------------------------
     0.8141        0.5940        0.2865        0.7580E-01    0.9168E-01
  (  1, 12,  5) (  5, 11,  5) (  5,  8,  5) (  2,  7,  9) (  3, 10,  8)
     0.2925E-01    0.1744E-01    0.8874E-02    0.1061E-01    0.3413E-02
  (  2,  7,  7) (  5, 10,  8) (  4,  8, 10) (  3, 10,  8) (  3,  8, 10)
     0.3828E-02    0.1484E-02    0.1298E-02    0.4738E-03    0.5677E-03
  (  3,  8,  8) (  5,  9,  9) (  5, 10,  8) (  3,  8, 10) (  3, 10,  8)
     0.1759E-03    0.1088E-03    0.5741E-04
  (  3,  9, 10) (  5, 10,  8) (  2,  7,  8)


 HEAD/DRAWDOWN PRINTOUT FLAG = 0     TOTAL BUDGET PRINTOUT FLAG = 0
 CELL-BY-CELL FLOW TERM FLAG = 1

 OUTPUT FLAGS FOR ALL LAYERS ARE THE SAME:
   HEAD    DRAWDOWN  HEAD  DRAWDOWN
 PRINTOUT  PRINTOUT  SAVE    SAVE
 ----------------------------------
     0         0       0       0


     0  LAKE CELLS ARE DRY.

 PERIOD     1     TIME STEP    18     TIME STEP LENGTH  2.2423E+01
 PERIOD TIME  3.4289E+02     TOTAL SIMULATION TIME  3.4289E+02


                 HYDROLOGIC BUDGET SUMMARIES FOR SIMULATED LAKES
     (ALL FLUID FLUXES ARE VOLUMES ADDED TO THE LAKE DURING PRESENT TIME STEP)
     ----------------------------------------------------------------------------------------
 LAKE    STAGE       PRECIP         EVAP         RUNOFF
   1  1.189708E+02  1.625674E+06  1.443487E+06  0.000000E+00

            GROUND WATER            SURFACE WATER
 LAKE    INFLOW     OUTFLOW      INFLOW     OUTFLOW
   1  5.1026E+06  0.0000E+00  0.0000E+00  0.0000E+00

         WATER    CONNECTED LAKE   UPDATED     TIME-STEP          STAGE CHANGE
 LAKE     USE         INFLUX        VOLUME    SURFACE AREA   TIME STEP  CUMULATIVE
   1   0.0000E+00   0.0000E+00   9.7318E+07    6.2500E+06   8.4551E-01  8.9708E+00
 --------------------------------------------------------------------------------



            CUMULATIVE HYDROLOGIC BUDGET SUMMARIES FOR SIMULATED LAKES
     (ALL FLUID FLUXES ARE SUMS OF VOLUMES ADDED TO THE LAKE SINCE INITIAL TIME)
     ---------------------------------------------------------------------------
 LAKE       PRECIP       EVAP       RUNOFF
   1     2.4860E+07  2.2074E+07  0.0000E+00

            GROUND WATER            SURFACE WATER
 LAKE    INFLOW     OUTFLOW      INFLOW     OUTFLOW
   1  5.3287E+07  0.0000E+00  0.0000E+00  0.0000E+00

         WATER    CONNECTED LAKE
 LAKE     USE         INFLUX
   1   0.0000E+00   0.0000E+00
 --------------------------------------------------------------------------------

 
 SOLVING FOR HEAD 
 ALL LAKES CONVERGED AFTER   2  ITERATIONS
 ALL LAKES CONVERGED AFTER   2  ITERATIONS
 ALL LAKES CONVERGED AFTER   2  ITERATIONS
 ALL LAKES CONVERGED AFTER   2  ITERATIONS
 ALL LAKES CONVERGED AFTER   2  ITERATIONS
 ALL LAKES CONVERGED AFTER   2  ITERATIONS
 ALL LAKES CONVERGED AFTER   2  ITERATIONS
 ALL LAKES CONVERGED AFTER   2  ITERATIONS
 ALL LAKES CONVERGED AFTER   2  ITERATIONS
 ALL LAKES CONVERGED AFTER   2  ITERATIONS
 ALL LAKES CONVERGED AFTER   2  ITERATIONS
 ALL LAKES CONVERGED AFTER   2  ITERATIONS
 ALL LAKES CONVERGED AFTER   2  ITERATIONS
 ALL LAKES CONVERGED AFTER   2  ITERATIONS
 ALL LAKES CONVERGED AFTER   2  ITERATIONS
 ALL LAKES CONVERGED AFTER   2  ITERATIONS
 ALL LAKES CONVERGED AFTER   2  ITERATIONS
 ALL LAKES CONVERGED AFTER   2  ITERATIONS
    18 ITERATIONS FOR TIME STEP  19 IN STRESS PERIOD    1

 MAXIMUM HEAD CHANGE FOR EACH ITERATION:

    HEAD CHANGE   HEAD CHANGE   HEAD CHANGE   HEAD CHANGE   HEAD CHANGE
  LAYER,ROW,COL LAYER,ROW,COL LAYER,ROW,COL LAYER,ROW,COL LAYER,ROW,COL
 ----------------------------------------------------------------------
     0.6977        0.5514        0.2726        0.8025E-01    0.9746E-01
  (  1, 12,  5) (  5, 11,  5) (  5,  8,  5) (  2,  7,  9) (  3, 10,  8)
     0.3140E-01    0.1886E-01    0.9681E-02    0.1160E-01    0.3765E-02
  (  2,  7,  7) (  5, 10,  8) (  4,  8, 10) (  3, 10,  8) (  3,  8, 10)
     0.4240E-02    0.1654E-02    0.1461E-02    0.5269E-03    0.6377E-03
  (  2,  7,  7) (  5,  9,  9) (  5, 10,  8) (  2,  7, 10) (  3, 10,  8)
     0.2036E-03    0.1344E-03    0.6950E-04
  (  3,  9, 10) (  5,  9,  7) (  2,  7, 10)


 HEAD/DRAWDOWN PRINTOUT FLAG = 0     TOTAL BUDGET PRINTOUT FLAG = 0
 CELL-BY-CELL FLOW TERM FLAG = 1

 OUTPUT FLAGS FOR ALL LAYERS ARE THE SAME:
   HEAD    DRAWDOWN  HEAD  DRAWDOWN
 PRINTOUT  PRINTOUT  SAVE    SAVE
 ----------------------------------
     0         0       0       0


     0  LAKE CELLS ARE DRY.

 PERIOD     1     TIME STEP    19     TIME STEP LENGTH  2.2872E+01
 PERIOD TIME  3.6576E+02     TOTAL SIMULATION TIME  3.6576E+02


                 HYDROLOGIC BUDGET SUMMARIES FOR SIMULATED LAKES
     (ALL FLUID FLUXES ARE VOLUMES ADDED TO THE LAKE DURING PRESENT TIME STEP)
     ----------------------------------------------------------------------------------------
 LAKE    STAGE       PRECIP         EVAP         RUNOFF
   1  1.198604E+02  1.658188E+06  1.472356E+06  0.000000E+00

            GROUND WATER            SURFACE WATER
 LAKE    INFLOW     OUTFLOW      INFLOW     OUTFLOW
   1  5.3750E+06  0.0000E+00  0.0000E+00  0.0000E+00

         WATER    CONNECTED LAKE   UPDATED     TIME-STEP          STAGE CHANGE
 LAKE     USE         INFLUX        VOLUME    SURFACE AREA   TIME STEP  CUMULATIVE
   1   0.0000E+00   0.0000E+00   1.0288E+08    6.2500E+06   8.8962E-01  9.8604E+00
 --------------------------------------------------------------------------------



            CUMULATIVE HYDROLOGIC BUDGET SUMMARIES FOR SIMULATED LAKES
     (ALL FLUID FLUXES ARE SUMS OF VOLUMES ADDED TO THE LAKE SINCE INITIAL TIME)
     ---------------------------------------------------------------------------
 LAKE       PRECIP       EVAP       RUNOFF
   1     2.6518E+07  2.3546E+07  0.0000E+00

            GROUND WATER            SURFACE WATER
 LAKE    INFLOW     OUTFLOW      INFLOW     OUTFLOW
   1  5.8662E+07  0.0000E+00  0.0000E+00  0.0000E+00

         WATER    CONNECTED LAKE
 LAKE     USE         INFLUX
   1   0.0000E+00   0.0000E+00
 --------------------------------------------------------------------------------

 
 SOLVING FOR HEAD 
 ALL LAKES CONVERGED AFTER   2  ITERATIONS
 ALL LAKES CONVERGED AFTER   2  ITERATIONS
 ALL LAKES CONVERGED AFTER   2  ITERATIONS
 ALL LAKES CONVERGED AFTER   2  ITERATIONS
 ALL LAKES CONVERGED AFTER   2  ITERATIONS
 ALL LAKES CONVERGED AFTER   2  ITERATIONS
 ALL LAKES CONVERGED AFTER   2  ITERATIONS
 ALL LAKES CONVERGED AFTER   2  ITERATIONS
 ALL LAKES CONVERGED AFTER   2  ITERATIONS
 ALL LAKES CONVERGED AFTER   2  ITERATIONS
 ALL LAKES CONVERGED AFTER   2  ITERATIONS
 ALL LAKES CONVERGED AFTER   2  ITERATIONS
 ALL LAKES CONVERGED AFTER   2  ITERATIONS
 ALL LAKES CONVERGED AFTER   2  ITERATIONS
 ALL LAKES CONVERGED AFTER   2  ITERATIONS
 ALL LAKES CONVERGED AFTER   2  ITERATIONS
 ALL LAKES CONVERGED AFTER   2  ITERATIONS
 ALL LAKES CONVERGED AFTER   2  ITERATIONS
    18 ITERATIONS FOR TIME STEP  20 IN STRESS PERIOD    1

 MAXIMUM HEAD CHANGE FOR EACH ITERATION:

    HEAD CHANGE   HEAD CHANGE   HEAD CHANGE   HEAD CHANGE   HEAD CHANGE
  LAYER,ROW,COL LAYER,ROW,COL LAYER,ROW,COL LAYER,ROW,COL LAYER,ROW,COL
 ----------------------------------------------------------------------
     0.6460        0.4939        0.2409        0.8431E-01    0.1028    
  (  1, 12,  6) (  4, 10,  5) (  5,  9,  6) (  2,  7,  9) (  3, 10,  8)
     0.3343E-01    0.2021E-01    0.1046E-01    0.1257E-01    0.4117E-02
  (  2,  7,  7) (  5, 10,  8) (  4,  8, 10) (  3, 10,  8) (  3,  8, 10)
     0.4645E-02    0.1834E-02    0.1620E-02    0.5953E-03    0.7171E-03
  (  2,  7,  7) (  5,  9,  9) (  5, 10,  8) (  3,  8, 10) (  3, 10,  8)
     0.2318E-03    0.1470E-03    0.8014E-04
  (  2,  7,  7) (  5,  9,  7) (  2,  8, 11)


 HEAD/DRAWDOWN PRINTOUT FLAG = 1     TOTAL BUDGET PRINTOUT FLAG = 1
 CELL-BY-CELL FLOW TERM FLAG = 1

 OUTPUT FLAGS FOR EACH LAYER:
          HEAD    DRAWDOWN  HEAD  DRAWDOWN
 LAYER  PRINTOUT  PRINTOUT  SAVE    SAVE
 -----------------------------------------
    1       0         0       0       0
    2       0         0       0       0
    3       0         0       0       0
    4       0         0       0       0
    5       1         0       0       0


     0  LAKE CELLS ARE DRY.

 PERIOD     1     TIME STEP    20     TIME STEP LENGTH  2.3329E+01
 PERIOD TIME  3.8909E+02     TOTAL SIMULATION TIME  3.8909E+02


                 HYDROLOGIC BUDGET SUMMARIES FOR SIMULATED LAKES
     (ALL FLUID FLUXES ARE VOLUMES ADDED TO THE LAKE DURING PRESENT TIME STEP)
     ----------------------------------------------------------------------------------------
 LAKE    STAGE       PRECIP         EVAP         RUNOFF
   1  1.207895E+02  1.691351E+06  1.501803E+06  0.000000E+00

            GROUND WATER            SURFACE WATER
 LAKE    INFLOW     OUTFLOW      INFLOW     OUTFLOW
   1  5.6173E+06  0.0000E+00  0.0000E+00  0.0000E+00

         WATER    CONNECTED LAKE   UPDATED     TIME-STEP          STAGE CHANGE
 LAKE     USE         INFLUX        VOLUME    SURFACE AREA   TIME STEP  CUMULATIVE
   1   0.0000E+00   0.0000E+00   1.0868E+08    6.2500E+06   9.2903E-01  1.0789E+01
 --------------------------------------------------------------------------------



            CUMULATIVE HYDROLOGIC BUDGET SUMMARIES FOR SIMULATED LAKES
     (ALL FLUID FLUXES ARE SUMS OF VOLUMES ADDED TO THE LAKE SINCE INITIAL TIME)
     ---------------------------------------------------------------------------
 LAKE       PRECIP       EVAP       RUNOFF
   1     2.8209E+07  2.5048E+07  0.0000E+00

            GROUND WATER            SURFACE WATER
 LAKE    INFLOW     OUTFLOW      INFLOW     OUTFLOW
   1  6.4280E+07  0.0000E+00  0.0000E+00  0.0000E+00

         WATER    CONNECTED LAKE
 LAKE     USE         INFLUX
   1   0.0000E+00   0.0000E+00
 --------------------------------------------------------------------------------

1
              HEAD IN LAYER   5 AT END OF TIME STEP  20 IN STRESS PERIOD    1
  ---------------------------------------------------------------------------

          1      2      3      4      5      6      7      8      9     10
 .........................................................................
   1   160.0  158.9  157.3  155.8  154.2  152.7  151.5  150.8  150.0  149.2
   2   160.0  158.3  156.0  153.9  152.0  150.3  149.1  148.3  147.5  146.8
   3   160.0  157.6  154.4  151.6  149.1  147.0  145.7  144.9  144.1  143.5
   4   160.0  157.2  153.2  149.7  146.6  143.9  142.4  141.5  140.8  140.3
   5   160.0  156.8  152.3  148.1  144.2  140.7  138.5  137.4  136.7  136.3
   6   160.0  156.6  151.6  146.8  141.9  136.4  131.8  130.3  129.6  129.6
   7   160.0  156.5  151.3  146.2  140.6  132.5  121.0  120.7  120.6  120.6
   8   160.0  156.4  151.1  145.9  140.0  131.2  120.7  120.3  120.3  120.3
   9   160.0  156.4  151.1  145.8  139.8  130.8  120.7  120.3  120.3  120.3
  10   160.0  156.4  151.1  145.9  140.0  131.2  120.7  120.3  120.3  120.3
  11   160.0  156.5  151.3  146.2  140.6  132.5  121.0  120.7  120.6  120.6
  12   160.0  156.6  151.6  146.8  141.9  136.4  131.8  130.3  129.6  129.6
  13   160.0  156.8  152.3  148.1  144.2  140.7  138.5  137.4  136.7  136.3
  14   160.0  157.2  153.2  149.7  146.6  143.9  142.4  141.5  140.8  140.3
  15   160.0  157.6  154.4  151.6  149.1  147.0  145.7  144.9  144.1  143.5
  16   160.0  158.3  156.0  153.9  152.0  150.3  149.1  148.3  147.5  146.8
  17   160.0  158.9  157.3  155.8  154.2  152.7  151.5  150.8  150.0  149.2
1
              HEAD IN LAYER   5 AT END OF TIME STEP  20 IN STRESS PERIOD    1
  ---------------------------------------------------------------------------

         11     12     13     14     15     16     17
 ....................................................
   1   148.5  147.3  145.8  144.2  142.7  141.1  140.0
   2   146.1  145.1  143.7  142.5  141.3  140.4  140.0
   3   142.9  142.1  141.2  140.4  139.9  139.7  140.0
   4   139.9  139.4  139.0  138.8  138.8  139.3  140.0
   5   136.3  136.6  137.2  137.6  138.1  139.0  140.0
   6   130.3  133.1  135.4  136.6  137.6  138.8  140.0
   7   120.9  129.7  134.2  136.1  137.4  138.7  140.0
   8   120.6  128.7  133.8  135.9  137.3  138.7  140.0
   9   120.6  128.4  133.6  135.9  137.2  138.7  140.0
  10   120.6  128.7  133.8  135.9  137.3  138.7  140.0
  11   120.9  129.7  134.2  136.1  137.4  138.7  140.0
  12   130.3  133.1  135.4  136.6  137.6  138.8  140.0
  13   136.3  136.6  137.2  137.6  138.1  139.0  140.0
  14   139.9  139.4  139.0  138.8  138.8  139.3  140.0
  15   142.9  142.1  141.2  140.4  139.9  139.7  140.0
  16   146.1  145.1  143.7  142.5  141.3  140.4  140.0
  17   148.5  147.3  145.8  144.2  142.7  141.1  140.0
1
  VOLUMETRIC BUDGET FOR ENTIRE MODEL AT END OF TIME STEP 20 IN STRESS PERIOD   1
  ------------------------------------------------------------------------------

     CUMULATIVE VOLUMES      L**3       RATES FOR THIS TIME STEP      L**3/T
     ------------------                 ------------------------

           IN:                                      IN:
           ---                                      ---
             STORAGE =       32205.5820               STORAGE =           0.0000
       CONSTANT HEAD =   470834240.0000         CONSTANT HEAD =      367103.3125
                  ET =           0.0000                    ET =           0.0000
            RECHARGE =   677019392.0000              RECHARGE =     1740000.0000
     SPECIFIED FLOWS =           0.0000       SPECIFIED FLOWS =           0.0000
       LAKE  SEEPAGE =           0.0000         LAKE  SEEPAGE =           0.0000

            TOTAL IN =  1147885824.0000              TOTAL IN =     2107103.2500

          OUT:                                     OUT:
          ----                                     ----
             STORAGE =   850446592.0000               STORAGE =      664420.4375
       CONSTANT HEAD =      224208.8438         CONSTANT HEAD =        2507.4639
                  ET =   232931168.0000                    ET =     1199361.5000
            RECHARGE =           0.0000              RECHARGE =           0.0000
     SPECIFIED FLOWS =           0.0000       SPECIFIED FLOWS =           0.0000
       LAKE  SEEPAGE =    64279660.0000         LAKE  SEEPAGE =      240785.2344

           TOTAL OUT =  1147881600.0000             TOTAL OUT =     2107074.7500

            IN - OUT =        4224.0000              IN - OUT =          28.5000

 PERCENT DISCREPANCY =           0.00     PERCENT DISCREPANCY =           0.00






          TIME SUMMARY AT END OF TIME STEP  20 IN STRESS PERIOD    1
                    SECONDS     MINUTES      HOURS       DAYS        YEARS
                    -----------------------------------------------------------
   TIME STEP LENGTH 2.01562E+06  33594.      559.90      23.329     6.38713E-02
 STRESS PERIOD TIME 3.36175E+07 5.60292E+05  9338.2      389.09      1.0653    
         TOTAL TIME 3.36175E+07 5.60292E+05  9338.2      389.09      1.0653    
1
 
 SOLVING FOR HEAD 
 ALL LAKES CONVERGED AFTER   2  ITERATIONS
 ALL LAKES CONVERGED AFTER   2  ITERATIONS
 ALL LAKES CONVERGED AFTER   2  ITERATIONS
 ALL LAKES CONVERGED AFTER   2  ITERATIONS
 ALL LAKES CONVERGED AFTER   2  ITERATIONS
 ALL LAKES CONVERGED AFTER   2  ITERATIONS
 ALL LAKES CONVERGED AFTER   2  ITERATIONS
 ALL LAKES CONVERGED AFTER   2  ITERATIONS
 ALL LAKES CONVERGED AFTER   2  ITERATIONS
 ALL LAKES CONVERGED AFTER   2  ITERATIONS
 ALL LAKES CONVERGED AFTER   2  ITERATIONS
 ALL LAKES CONVERGED AFTER   2  ITERATIONS
 ALL LAKES CONVERGED AFTER   2  ITERATIONS
 ALL LAKES CONVERGED AFTER   2  ITERATIONS
 ALL LAKES CONVERGED AFTER   2  ITERATIONS
 ALL LAKES CONVERGED AFTER   2  ITERATIONS
 ALL LAKES CONVERGED AFTER   2  ITERATIONS
 ALL LAKES CONVERGED AFTER   2  ITERATIONS
    18 ITERATIONS FOR TIME STEP  21 IN STRESS PERIOD    1

 MAXIMUM HEAD CHANGE FOR EACH ITERATION:

    HEAD CHANGE   HEAD CHANGE   HEAD CHANGE   HEAD CHANGE   HEAD CHANGE
  LAYER,ROW,COL LAYER,ROW,COL LAYER,ROW,COL LAYER,ROW,COL LAYER,ROW,COL
 ----------------------------------------------------------------------
     0.5932        0.4322        0.2327        0.8799E-01    0.1076    
  (  1, 12,  6) (  5, 11,  5) (  5,  9,  6) (  2,  7,  9) (  3, 10,  8)
     0.3537E-01    0.2151E-01    0.1123E-01    0.1354E-01    0.4488E-02
  (  2,  7,  7) (  5, 10,  8) (  4,  8, 10) (  3, 10,  8) (  3,  8, 10)
     0.5067E-02    0.2015E-02    0.1788E-02    0.6658E-03    0.8067E-03
  (  2,  7,  7) (  5,  9,  9) (  5, 10,  8) (  3,  8, 10) (  3, 10,  8)
     0.2614E-03    0.1583E-03    0.8311E-04
  (  2,  7,  7) (  5, 11,  8) (  3,  8, 10)


 HEAD/DRAWDOWN PRINTOUT FLAG = 0     TOTAL BUDGET PRINTOUT FLAG = 0
 CELL-BY-CELL FLOW TERM FLAG = 1

 OUTPUT FLAGS FOR ALL LAYERS ARE THE SAME:
   HEAD    DRAWDOWN  HEAD  DRAWDOWN
 PRINTOUT  PRINTOUT  SAVE    SAVE
 ----------------------------------
     0         0       0       0


     0  LAKE CELLS ARE DRY.

 PERIOD     1     TIME STEP    21     TIME STEP LENGTH  2.3796E+01
 PERIOD TIME  4.1289E+02     TOTAL SIMULATION TIME  4.1289E+02


                 HYDROLOGIC BUDGET SUMMARIES FOR SIMULATED LAKES
     (ALL FLUID FLUXES ARE VOLUMES ADDED TO THE LAKE DURING PRESENT TIME STEP)
     ----------------------------------------------------------------------------------------
 LAKE    STAGE       PRECIP         EVAP         RUNOFF
   1  1.217522E+02  1.725178E+06  1.531839E+06  0.000000E+00

            GROUND WATER            SURFACE WATER
 LAKE    INFLOW     OUTFLOW      INFLOW     OUTFLOW
   1  5.8242E+06  0.0000E+00  0.0000E+00  0.0000E+00

         WATER    CONNECTED LAKE   UPDATED     TIME-STEP          STAGE CHANGE
 LAKE     USE         INFLUX        VOLUME    SURFACE AREA   TIME STEP  CUMULATIVE
   1   0.0000E+00   0.0000E+00   1.1470E+08    6.2500E+06   9.6271E-01  1.1752E+01
 --------------------------------------------------------------------------------



            CUMULATIVE HYDROLOGIC BUDGET SUMMARIES FOR SIMULATED LAKES
     (ALL FLUID FLUXES ARE SUMS OF VOLUMES ADDED TO THE LAKE SINCE INITIAL TIME)
     ---------------------------------------------------------------------------
 LAKE       PRECIP       EVAP       RUNOFF
   1     2.9934E+07  2.6580E+07  0.0000E+00

            GROUND WATER            SURFACE WATER
 LAKE    INFLOW     OUTFLOW      INFLOW     OUTFLOW
   1  7.0104E+07  0.0000E+00  0.0000E+00  0.0000E+00

         WATER    CONNECTED LAKE
 LAKE     USE         INFLUX
   1   0.0000E+00   0.0000E+00
 --------------------------------------------------------------------------------

 
 SOLVING FOR HEAD 
 ALL LAKES CONVERGED AFTER   2  ITERATIONS
 ALL LAKES CONVERGED AFTER   2  ITERATIONS
 ALL LAKES CONVERGED AFTER   2  ITERATIONS
 ALL LAKES CONVERGED AFTER   2  ITERATIONS
 ALL LAKES CONVERGED AFTER   2  ITERATIONS
 ALL LAKES CONVERGED AFTER   2  ITERATIONS
 ALL LAKES CONVERGED AFTER   2  ITERATIONS
 ALL LAKES CONVERGED AFTER   2  ITERATIONS
 ALL LAKES CONVERGED AFTER   2  ITERATIONS
 ALL LAKES CONVERGED AFTER   2  ITERATIONS
 ALL LAKES CONVERGED AFTER   2  ITERATIONS
 ALL LAKES CONVERGED AFTER   2  ITERATIONS
 ALL LAKES CONVERGED AFTER   2  ITERATIONS
 ALL LAKES CONVERGED AFTER   2  ITERATIONS
 ALL LAKES CONVERGED AFTER   2  ITERATIONS
 ALL LAKES CONVERGED AFTER   2  ITERATIONS
 ALL LAKES CONVERGED AFTER   2  ITERATIONS
 ALL LAKES CONVERGED AFTER   2  ITERATIONS
    18 ITERATIONS FOR TIME STEP  22 IN STRESS PERIOD    1

 MAXIMUM HEAD CHANGE FOR EACH ITERATION:

    HEAD CHANGE   HEAD CHANGE   HEAD CHANGE   HEAD CHANGE   HEAD CHANGE
  LAYER,ROW,COL LAYER,ROW,COL LAYER,ROW,COL LAYER,ROW,COL LAYER,ROW,COL
 ----------------------------------------------------------------------
     0.5406        0.3895        0.2235        0.9128E-01    0.1118    
  (  1, 12,  6) (  5,  6,  7) (  5,  8,  6) (  3,  8, 10) (  3, 10,  8)
     0.3708E-01    0.2272E-01    0.1197E-01    0.1445E-01    0.4840E-02
  (  2,  7,  7) (  5, 10,  8) (  4,  8, 10) (  3, 10,  8) (  3,  8, 10)
     0.5470E-02    0.2195E-02    0.1956E-02    0.7362E-03    0.8963E-03
  (  2,  7,  7) (  5,  9,  9) (  5, 10,  8) (  3,  8, 10) (  3, 10,  8)
     0.2895E-03    0.1823E-03    0.9998E-04
  (  2,  7,  7) (  5,  9,  7) (  2,  7,  9)


 HEAD/DRAWDOWN PRINTOUT FLAG = 0     TOTAL BUDGET PRINTOUT FLAG = 0
 CELL-BY-CELL FLOW TERM FLAG = 1

 OUTPUT FLAGS FOR ALL LAYERS ARE THE SAME:
   HEAD    DRAWDOWN  HEAD  DRAWDOWN
 PRINTOUT  PRINTOUT  SAVE    SAVE
 ----------------------------------
     0         0       0       0


     0  LAKE CELLS ARE DRY.

 PERIOD     1     TIME STEP    22     TIME STEP LENGTH  2.4271E+01
 PERIOD TIME  4.3716E+02     TOTAL SIMULATION TIME  4.3716E+02


                 HYDROLOGIC BUDGET SUMMARIES FOR SIMULATED LAKES
     (ALL FLUID FLUXES ARE VOLUMES ADDED TO THE LAKE DURING PRESENT TIME STEP)
     ----------------------------------------------------------------------------------------
 LAKE    STAGE       PRECIP         EVAP         RUNOFF
   1  1.227424E+02  1.759682E+06  1.562476E+06  0.000000E+00

            GROUND WATER            SURFACE WATER
 LAKE    INFLOW     OUTFLOW      INFLOW     OUTFLOW
   1  5.9924E+06  0.0000E+00  0.0000E+00  0.0000E+00

         WATER    CONNECTED LAKE   UPDATED     TIME-STEP          STAGE CHANGE
 LAKE     USE         INFLUX        VOLUME    SURFACE AREA   TIME STEP  CUMULATIVE
   1   0.0000E+00   0.0000E+00   1.2089E+08    6.2500E+06   9.9024E-01  1.2742E+01
 --------------------------------------------------------------------------------



            CUMULATIVE HYDROLOGIC BUDGET SUMMARIES FOR SIMULATED LAKES
     (ALL FLUID FLUXES ARE SUMS OF VOLUMES ADDED TO THE LAKE SINCE INITIAL TIME)
     ---------------------------------------------------------------------------
 LAKE       PRECIP       EVAP       RUNOFF
   1     3.1694E+07  2.8142E+07  0.0000E+00

            GROUND WATER            SURFACE WATER
 LAKE    INFLOW     OUTFLOW      INFLOW     OUTFLOW
   1  7.6096E+07  0.0000E+00  0.0000E+00  0.0000E+00

         WATER    CONNECTED LAKE
 LAKE     USE         INFLUX
   1   0.0000E+00   0.0000E+00
 --------------------------------------------------------------------------------

 
 SOLVING FOR HEAD 
 ALL LAKES CONVERGED AFTER   2  ITERATIONS
 ALL LAKES CONVERGED AFTER   2  ITERATIONS
 ALL LAKES CONVERGED AFTER   2  ITERATIONS
 ALL LAKES CONVERGED AFTER   2  ITERATIONS
 ALL LAKES CONVERGED AFTER   2  ITERATIONS
 ALL LAKES CONVERGED AFTER   2  ITERATIONS
 ALL LAKES CONVERGED AFTER   2  ITERATIONS
 ALL LAKES CONVERGED AFTER   2  ITERATIONS
 ALL LAKES CONVERGED AFTER   2  ITERATIONS
 ALL LAKES CONVERGED AFTER   2  ITERATIONS
 ALL LAKES CONVERGED AFTER   2  ITERATIONS
 ALL LAKES CONVERGED AFTER   2  ITERATIONS
 ALL LAKES CONVERGED AFTER   2  ITERATIONS
 ALL LAKES CONVERGED AFTER   2  ITERATIONS
 ALL LAKES CONVERGED AFTER   2  ITERATIONS
 ALL LAKES CONVERGED AFTER   2  ITERATIONS
 ALL LAKES CONVERGED AFTER   2  ITERATIONS
 ALL LAKES CONVERGED AFTER   2  ITERATIONS
 ALL LAKES CONVERGED AFTER   1  ITERATIONS
 ALL LAKES CONVERGED AFTER   1  ITERATIONS
    20 ITERATIONS FOR TIME STEP  23 IN STRESS PERIOD    1

 MAXIMUM HEAD CHANGE FOR EACH ITERATION:

    HEAD CHANGE   HEAD CHANGE   HEAD CHANGE   HEAD CHANGE   HEAD CHANGE
  LAYER,ROW,COL LAYER,ROW,COL LAYER,ROW,COL LAYER,ROW,COL LAYER,ROW,COL
 ----------------------------------------------------------------------
     0.4490        0.3628        0.2271        0.9410E-01    0.1154    
  (  1, 12,  6) (  5,  6,  7) (  5, 10,  8) (  3,  8, 10) (  3, 10,  8)
     0.3867E-01    0.2384E-01    0.1267E-01    0.1533E-01    0.5191E-02
  (  2,  7,  7) (  5, 10,  8) (  4,  8, 10) (  3, 10,  8) (  3,  8, 10)
     0.5874E-02    0.2375E-02    0.2125E-02    0.8164E-03    0.9954E-03
  (  2,  7,  7) (  5,  9,  9) (  5, 10,  8) (  3,  8, 10) (  3, 10,  8)
     0.3276E-03    0.2042E-03    0.1203E-03    0.1251E-03    0.5002E-04
  (  2,  7,  7) (  5, 10,  8) (  2,  9, 11) (  5, 10,  8) (  3,  8, 10)


 HEAD/DRAWDOWN PRINTOUT FLAG = 0     TOTAL BUDGET PRINTOUT FLAG = 0
 CELL-BY-CELL FLOW TERM FLAG = 1

 OUTPUT FLAGS FOR ALL LAYERS ARE THE SAME:
   HEAD    DRAWDOWN  HEAD  DRAWDOWN
 PRINTOUT  PRINTOUT  SAVE    SAVE
 ----------------------------------
     0         0       0       0


     0  LAKE CELLS ARE DRY.

 PERIOD     1     TIME STEP    23     TIME STEP LENGTH  2.4757E+01
 PERIOD TIME  4.6192E+02     TOTAL SIMULATION TIME  4.6192E+02


                 HYDROLOGIC BUDGET SUMMARIES FOR SIMULATED LAKES
     (ALL FLUID FLUXES ARE VOLUMES ADDED TO THE LAKE DURING PRESENT TIME STEP)
     ----------------------------------------------------------------------------------------
 LAKE    STAGE       PRECIP         EVAP         RUNOFF
   1  1.237540E+02  1.794875E+06  1.593726E+06  0.000000E+00

            GROUND WATER            SURFACE WATER
 LAKE    INFLOW     OUTFLOW      INFLOW     OUTFLOW
   1  6.1215E+06  0.0000E+00  0.0000E+00  0.0000E+00

         WATER    CONNECTED LAKE   UPDATED     TIME-STEP          STAGE CHANGE
 LAKE     USE         INFLUX        VOLUME    SURFACE AREA   TIME STEP  CUMULATIVE
   1   0.0000E+00   0.0000E+00   1.2721E+08    6.2500E+06   1.0116E+00  1.3754E+01
 --------------------------------------------------------------------------------



            CUMULATIVE HYDROLOGIC BUDGET SUMMARIES FOR SIMULATED LAKES
     (ALL FLUID FLUXES ARE SUMS OF VOLUMES ADDED TO THE LAKE SINCE INITIAL TIME)
     ---------------------------------------------------------------------------
 LAKE       PRECIP       EVAP       RUNOFF
   1     3.3489E+07  2.9736E+07  0.0000E+00

            GROUND WATER            SURFACE WATER
 LAKE    INFLOW     OUTFLOW      INFLOW     OUTFLOW
   1  8.2218E+07  0.0000E+00  0.0000E+00  0.0000E+00

         WATER    CONNECTED LAKE
 LAKE     USE         INFLUX
   1   0.0000E+00   0.0000E+00
 --------------------------------------------------------------------------------

 
 SOLVING FOR HEAD 
 ALL LAKES CONVERGED AFTER   2  ITERATIONS
 ALL LAKES CONVERGED AFTER   2  ITERATIONS
 ALL LAKES CONVERGED AFTER   2  ITERATIONS
 ALL LAKES CONVERGED AFTER   2  ITERATIONS
 ALL LAKES CONVERGED AFTER   2  ITERATIONS
 ALL LAKES CONVERGED AFTER   2  ITERATIONS
 ALL LAKES CONVERGED AFTER   2  ITERATIONS
 ALL LAKES CONVERGED AFTER   2  ITERATIONS
 ALL LAKES CONVERGED AFTER   2  ITERATIONS
 ALL LAKES CONVERGED AFTER   2  ITERATIONS
 ALL LAKES CONVERGED AFTER   2  ITERATIONS
 ALL LAKES CONVERGED AFTER   2  ITERATIONS
 ALL LAKES CONVERGED AFTER   2  ITERATIONS
 ALL LAKES CONVERGED AFTER   2  ITERATIONS
 ALL LAKES CONVERGED AFTER   2  ITERATIONS
 ALL LAKES CONVERGED AFTER   2  ITERATIONS
 ALL LAKES CONVERGED AFTER   2  ITERATIONS
 ALL LAKES CONVERGED AFTER   2  ITERATIONS
 ALL LAKES CONVERGED AFTER   1  ITERATIONS
 ALL LAKES CONVERGED AFTER   2  ITERATIONS
    20 ITERATIONS FOR TIME STEP  24 IN STRESS PERIOD    1

 MAXIMUM HEAD CHANGE FOR EACH ITERATION:

    HEAD CHANGE   HEAD CHANGE   HEAD CHANGE   HEAD CHANGE   HEAD CHANGE
  LAYER,ROW,COL LAYER,ROW,COL LAYER,ROW,COL LAYER,ROW,COL LAYER,ROW,COL
 ----------------------------------------------------------------------
     0.4118        0.3414        0.2313        0.9638E-01    0.1184    
  (  3,  9,  9) (  5,  6,  7) (  5, 10,  8) (  3,  8, 10) (  3, 10,  8)
     0.4004E-01    0.2484E-01    0.1332E-01    0.1615E-01    0.5522E-02
  (  2,  7,  7) (  5, 10,  8) (  3,  8, 10) (  3, 10,  8) (  3,  8, 10)
     0.6260E-02    0.2544E-02    0.2293E-02    0.8776E-03    0.1076E-02
  (  2,  7,  7) (  5,  9,  9) (  5, 10,  8) (  3,  8, 10) (  3, 10,  8)
     0.3658E-03    0.2285E-03    0.1219E-03    0.1441E-03    0.5019E-04
  (  2,  7,  7) (  5, 10,  8) (  3,  9, 11) (  4, 10,  8) (  3,  8, 10)


 HEAD/DRAWDOWN PRINTOUT FLAG = 0     TOTAL BUDGET PRINTOUT FLAG = 0
 CELL-BY-CELL FLOW TERM FLAG = 1

 OUTPUT FLAGS FOR ALL LAYERS ARE THE SAME:
   HEAD    DRAWDOWN  HEAD  DRAWDOWN
 PRINTOUT  PRINTOUT  SAVE    SAVE
 ----------------------------------
     0         0       0       0


     0  LAKE CELLS ARE DRY.

 PERIOD     1     TIME STEP    24     TIME STEP LENGTH  2.5252E+01
 PERIOD TIME  4.8717E+02     TOTAL SIMULATION TIME  4.8717E+02


                 HYDROLOGIC BUDGET SUMMARIES FOR SIMULATED LAKES
     (ALL FLUID FLUXES ARE VOLUMES ADDED TO THE LAKE DURING PRESENT TIME STEP)
     ----------------------------------------------------------------------------------------
 LAKE    STAGE       PRECIP         EVAP         RUNOFF
   1  1.247804E+02  1.830773E+06  1.625600E+06  0.000000E+00

            GROUND WATER            SURFACE WATER
 LAKE    INFLOW     OUTFLOW      INFLOW     OUTFLOW
   1  6.2095E+06  0.0000E+00  0.0000E+00  0.0000E+00

         WATER    CONNECTED LAKE   UPDATED     TIME-STEP          STAGE CHANGE
 LAKE     USE         INFLUX        VOLUME    SURFACE AREA   TIME STEP  CUMULATIVE
   1   0.0000E+00   0.0000E+00   1.3363E+08    6.2500E+06   1.0264E+00  1.4780E+01
 --------------------------------------------------------------------------------



            CUMULATIVE HYDROLOGIC BUDGET SUMMARIES FOR SIMULATED LAKES
     (ALL FLUID FLUXES ARE SUMS OF VOLUMES ADDED TO THE LAKE SINCE INITIAL TIME)
     ---------------------------------------------------------------------------
 LAKE       PRECIP       EVAP       RUNOFF
   1     3.5320E+07  3.1361E+07  0.0000E+00

            GROUND WATER            SURFACE WATER
 LAKE    INFLOW     OUTFLOW      INFLOW     OUTFLOW
   1  8.8427E+07  0.0000E+00  0.0000E+00  0.0000E+00

         WATER    CONNECTED LAKE
 LAKE     USE         INFLUX
   1   0.0000E+00   0.0000E+00
 --------------------------------------------------------------------------------

 
 SOLVING FOR HEAD 
 ALL LAKES CONVERGED AFTER   2  ITERATIONS
 ALL LAKES CONVERGED AFTER   2  ITERATIONS
 ALL LAKES CONVERGED AFTER   2  ITERATIONS
 ALL LAKES CONVERGED AFTER   2  ITERATIONS
 ALL LAKES CONVERGED AFTER   2  ITERATIONS
 ALL LAKES CONVERGED AFTER   2  ITERATIONS
 ALL LAKES CONVERGED AFTER   2  ITERATIONS
 ALL LAKES CONVERGED AFTER   2  ITERATIONS
 ALL LAKES CONVERGED AFTER   2  ITERATIONS
 ALL LAKES CONVERGED AFTER   2  ITERATIONS
 ALL LAKES CONVERGED AFTER   2  ITERATIONS
 ALL LAKES CONVERGED AFTER   2  ITERATIONS
 ALL LAKES CONVERGED AFTER   2  ITERATIONS
 ALL LAKES CONVERGED AFTER   2  ITERATIONS
 ALL LAKES CONVERGED AFTER   2  ITERATIONS
 ALL LAKES CONVERGED AFTER   2  ITERATIONS
 ALL LAKES CONVERGED AFTER   2  ITERATIONS
 ALL LAKES CONVERGED AFTER   2  ITERATIONS
 ALL LAKES CONVERGED AFTER   1  ITERATIONS
 ALL LAKES CONVERGED AFTER   2  ITERATIONS
    20 ITERATIONS FOR TIME STEP  25 IN STRESS PERIOD    1

 MAXIMUM HEAD CHANGE FOR EACH ITERATION:

    HEAD CHANGE   HEAD CHANGE   HEAD CHANGE   HEAD CHANGE   HEAD CHANGE
  LAYER,ROW,COL LAYER,ROW,COL LAYER,ROW,COL LAYER,ROW,COL LAYER,ROW,COL
 ----------------------------------------------------------------------
     0.4131        0.3228        0.2340        0.9808E-01    0.1206    
  (  3,  9,  9) (  5,  6,  7) (  5, 10,  8) (  3,  8, 10) (  3, 10,  8)
     0.4120E-01    0.2573E-01    0.1390E-01    0.1690E-01    0.5834E-02
  (  2,  7,  7) (  5, 10,  8) (  3,  8, 10) (  3, 10,  8) (  3,  8, 10)
     0.6627E-02    0.2722E-02    0.2465E-02    0.9483E-03    0.1166E-02
  (  2,  7,  7) (  5,  9,  9) (  5, 10,  8) (  3,  8, 10) (  3, 10,  8)
     0.3960E-03    0.2518E-03    0.1349E-03    0.1624E-03    0.6006E-04
  (  2,  7,  7) (  5, 10,  8) (  3,  8, 10) (  4, 10,  8) (  3,  8, 10)


 HEAD/DRAWDOWN PRINTOUT FLAG = 0     TOTAL BUDGET PRINTOUT FLAG = 0
 CELL-BY-CELL FLOW TERM FLAG = 1

 OUTPUT FLAGS FOR ALL LAYERS ARE THE SAME:
   HEAD    DRAWDOWN  HEAD  DRAWDOWN
 PRINTOUT  PRINTOUT  SAVE    SAVE
 ----------------------------------
     0         0       0       0


     0  LAKE CELLS ARE DRY.

 PERIOD     1     TIME STEP    25     TIME STEP LENGTH  2.5757E+01
 PERIOD TIME  5.1292E+02     TOTAL SIMULATION TIME  5.1292E+02


                 HYDROLOGIC BUDGET SUMMARIES FOR SIMULATED LAKES
     (ALL FLUID FLUXES ARE VOLUMES ADDED TO THE LAKE DURING PRESENT TIME STEP)
     ----------------------------------------------------------------------------------------
 LAKE    STAGE       PRECIP         EVAP         RUNOFF
   1  1.258148E+02  1.867388E+06  1.658112E+06  0.000000E+00

            GROUND WATER            SURFACE WATER
 LAKE    INFLOW     OUTFLOW      INFLOW     OUTFLOW
   1  6.2565E+06  0.0000E+00  0.0000E+00  0.0000E+00

         WATER    CONNECTED LAKE   UPDATED     TIME-STEP          STAGE CHANGE
 LAKE     USE         INFLUX        VOLUME    SURFACE AREA   TIME STEP  CUMULATIVE
   1   0.0000E+00   0.0000E+00   1.4009E+08    6.2500E+06   1.0345E+00  1.5815E+01
 --------------------------------------------------------------------------------



            CUMULATIVE HYDROLOGIC BUDGET SUMMARIES FOR SIMULATED LAKES
     (ALL FLUID FLUXES ARE SUMS OF VOLUMES ADDED TO THE LAKE SINCE INITIAL TIME)
     ---------------------------------------------------------------------------
 LAKE       PRECIP       EVAP       RUNOFF
   1     3.7187E+07  3.3020E+07  0.0000E+00

            GROUND WATER            SURFACE WATER
 LAKE    INFLOW     OUTFLOW      INFLOW     OUTFLOW
   1  9.4684E+07  0.0000E+00  0.0000E+00  0.0000E+00

         WATER    CONNECTED LAKE
 LAKE     USE         INFLUX
   1   0.0000E+00   0.0000E+00
 --------------------------------------------------------------------------------

 
 SOLVING FOR HEAD 
 ALL LAKES CONVERGED AFTER   2  ITERATIONS
 ALL LAKES CONVERGED AFTER   2  ITERATIONS
 ALL LAKES CONVERGED AFTER   2  ITERATIONS
 ALL LAKES CONVERGED AFTER   2  ITERATIONS
 ALL LAKES CONVERGED AFTER   2  ITERATIONS
 ALL LAKES CONVERGED AFTER   2  ITERATIONS
 ALL LAKES CONVERGED AFTER   2  ITERATIONS
 ALL LAKES CONVERGED AFTER   2  ITERATIONS
 ALL LAKES CONVERGED AFTER   2  ITERATIONS
 ALL LAKES CONVERGED AFTER   2  ITERATIONS
 ALL LAKES CONVERGED AFTER   2  ITERATIONS
 ALL LAKES CONVERGED AFTER   2  ITERATIONS
 ALL LAKES CONVERGED AFTER   2  ITERATIONS
 ALL LAKES CONVERGED AFTER   2  ITERATIONS
 ALL LAKES CONVERGED AFTER   2  ITERATIONS
 ALL LAKES CONVERGED AFTER   2  ITERATIONS
 ALL LAKES CONVERGED AFTER   2  ITERATIONS
 ALL LAKES CONVERGED AFTER   2  ITERATIONS
 ALL LAKES CONVERGED AFTER   1  ITERATIONS
 ALL LAKES CONVERGED AFTER   2  ITERATIONS
    20 ITERATIONS FOR TIME STEP  26 IN STRESS PERIOD    1

 MAXIMUM HEAD CHANGE FOR EACH ITERATION:

    HEAD CHANGE   HEAD CHANGE   HEAD CHANGE   HEAD CHANGE   HEAD CHANGE
  LAYER,ROW,COL LAYER,ROW,COL LAYER,ROW,COL LAYER,ROW,COL LAYER,ROW,COL
 ----------------------------------------------------------------------
     0.4116        0.3072        0.2351        0.9905E-01    0.1220    
  (  3,  9,  9) (  5, 10,  6) (  5, 10,  8) (  3,  8, 10) (  3, 10,  8)
     0.4191E-01    0.2642E-01    0.1440E-01    0.1754E-01    0.6115E-02
  (  2,  7,  7) (  5, 10,  8) (  3,  8, 10) (  3, 10,  8) (  3,  8, 10)
     0.6952E-02    0.2878E-02    0.2603E-02    0.1028E-02    0.1264E-02
  (  3,  8,  8) (  5,  9,  9) (  5, 10,  8) (  3,  8, 10) (  3, 10,  8)
     0.4323E-03    0.2711E-03    0.1515E-03    0.1815E-03    0.6882E-04
  (  2,  7,  7) (  5, 10,  9) (  3,  9, 11) (  3, 10,  8) (  2,  8, 11)


 HEAD/DRAWDOWN PRINTOUT FLAG = 0     TOTAL BUDGET PRINTOUT FLAG = 0
 CELL-BY-CELL FLOW TERM FLAG = 1

 OUTPUT FLAGS FOR ALL LAYERS ARE THE SAME:
   HEAD    DRAWDOWN  HEAD  DRAWDOWN
 PRINTOUT  PRINTOUT  SAVE    SAVE
 ----------------------------------
     0         0       0       0


     0  LAKE CELLS ARE DRY.

 PERIOD     1     TIME STEP    26     TIME STEP LENGTH  2.6272E+01
 PERIOD TIME  5.3920E+02     TOTAL SIMULATION TIME  5.3920E+02


                 HYDROLOGIC BUDGET SUMMARIES FOR SIMULATED LAKES
     (ALL FLUID FLUXES ARE VOLUMES ADDED TO THE LAKE DURING PRESENT TIME STEP)
     ----------------------------------------------------------------------------------------
 LAKE    STAGE       PRECIP         EVAP         RUNOFF
   1  1.268502E+02  1.904736E+06  1.691274E+06  0.000000E+00

            GROUND WATER            SURFACE WATER
 LAKE    INFLOW     OUTFLOW      INFLOW     OUTFLOW
   1  6.2580E+06  0.0000E+00  0.0000E+00  0.0000E+00

         WATER    CONNECTED LAKE   UPDATED     TIME-STEP          STAGE CHANGE
 LAKE     USE         INFLUX        VOLUME    SURFACE AREA   TIME STEP  CUMULATIVE
   1   0.0000E+00   0.0000E+00   1.4656E+08    6.2500E+06   1.0354E+00  1.6850E+01
 --------------------------------------------------------------------------------



            CUMULATIVE HYDROLOGIC BUDGET SUMMARIES FOR SIMULATED LAKES
     (ALL FLUID FLUXES ARE SUMS OF VOLUMES ADDED TO THE LAKE SINCE INITIAL TIME)
     ---------------------------------------------------------------------------
 LAKE       PRECIP       EVAP       RUNOFF
   1     3.9092E+07  3.4711E+07  0.0000E+00

            GROUND WATER            SURFACE WATER
 LAKE    INFLOW     OUTFLOW      INFLOW     OUTFLOW
   1  1.0094E+08  0.0000E+00  0.0000E+00  0.0000E+00

         WATER    CONNECTED LAKE
 LAKE     USE         INFLUX
   1   0.0000E+00   0.0000E+00
 --------------------------------------------------------------------------------

 
 SOLVING FOR HEAD 
 ALL LAKES CONVERGED AFTER   2  ITERATIONS
 ALL LAKES CONVERGED AFTER   2  ITERATIONS
 ALL LAKES CONVERGED AFTER   2  ITERATIONS
 ALL LAKES CONVERGED AFTER   2  ITERATIONS
 ALL LAKES CONVERGED AFTER   2  ITERATIONS
 ALL LAKES CONVERGED AFTER   2  ITERATIONS
 ALL LAKES CONVERGED AFTER   2  ITERATIONS
 ALL LAKES CONVERGED AFTER   2  ITERATIONS
 ALL LAKES CONVERGED AFTER   2  ITERATIONS
 ALL LAKES CONVERGED AFTER   2  ITERATIONS
 ALL LAKES CONVERGED AFTER   2  ITERATIONS
 ALL LAKES CONVERGED AFTER   2  ITERATIONS
 ALL LAKES CONVERGED AFTER   2  ITERATIONS
 ALL LAKES CONVERGED AFTER   2  ITERATIONS
 ALL LAKES CONVERGED AFTER   2  ITERATIONS
 ALL LAKES CONVERGED AFTER   2  ITERATIONS
 ALL LAKES CONVERGED AFTER   2  ITERATIONS
 ALL LAKES CONVERGED AFTER   2  ITERATIONS
 ALL LAKES CONVERGED AFTER   2  ITERATIONS
 ALL LAKES CONVERGED AFTER   2  ITERATIONS
    20 ITERATIONS FOR TIME STEP  27 IN STRESS PERIOD    1

 MAXIMUM HEAD CHANGE FOR EACH ITERATION:

    HEAD CHANGE   HEAD CHANGE   HEAD CHANGE   HEAD CHANGE   HEAD CHANGE
  LAYER,ROW,COL LAYER,ROW,COL LAYER,ROW,COL LAYER,ROW,COL LAYER,ROW,COL
 ----------------------------------------------------------------------
     0.4072        0.2869        0.2344        0.9935E-01    0.1226    
  (  3,  9,  9) (  5, 10,  6) (  5, 10,  8) (  3,  8, 10) (  3, 10,  8)
     0.4250E-01    0.2695E-01    0.1481E-01    0.1807E-01    0.6356E-02
  (  2,  7,  7) (  5, 10,  8) (  3,  8, 10) (  3, 10,  8) (  3,  8, 10)
     0.7233E-02    0.3021E-02    0.2755E-02    0.1089E-02    0.1344E-02
  (  3,  8,  8) (  5,  9,  9) (  5, 10,  8) (  3,  8, 10) (  3, 10,  8)
     0.4618E-03    0.2983E-03    0.1601E-03    0.1919E-03    0.7025E-04
  (  2,  7,  7) (  5, 10,  8) (  2,  7,  9) (  5, 10,  8) (  3,  8, 10)


 HEAD/DRAWDOWN PRINTOUT FLAG = 0     TOTAL BUDGET PRINTOUT FLAG = 0
 CELL-BY-CELL FLOW TERM FLAG = 1

 OUTPUT FLAGS FOR ALL LAYERS ARE THE SAME:
   HEAD    DRAWDOWN  HEAD  DRAWDOWN
 PRINTOUT  PRINTOUT  SAVE    SAVE
 ----------------------------------
     0         0       0       0


     0  LAKE CELLS ARE DRY.

 PERIOD     1     TIME STEP    27     TIME STEP LENGTH  2.6798E+01
 PERIOD TIME  5.6599E+02     TOTAL SIMULATION TIME  5.6599E+02


                 HYDROLOGIC BUDGET SUMMARIES FOR SIMULATED LAKES
     (ALL FLUID FLUXES ARE VOLUMES ADDED TO THE LAKE DURING PRESENT TIME STEP)
     ----------------------------------------------------------------------------------------
 LAKE    STAGE       PRECIP         EVAP         RUNOFF
   1  1.278790E+02  1.942831E+06  1.725100E+06  0.000000E+00

            GROUND WATER            SURFACE WATER
 LAKE    INFLOW     OUTFLOW      INFLOW     OUTFLOW
   1  6.2129E+06  0.0000E+00  0.0000E+00  0.0000E+00

         WATER    CONNECTED LAKE   UPDATED     TIME-STEP          STAGE CHANGE
 LAKE     USE         INFLUX        VOLUME    SURFACE AREA   TIME STEP  CUMULATIVE
   1   0.0000E+00   0.0000E+00   1.5299E+08    6.2500E+06   1.0289E+00  1.7879E+01
 --------------------------------------------------------------------------------



            CUMULATIVE HYDROLOGIC BUDGET SUMMARIES FOR SIMULATED LAKES
     (ALL FLUID FLUXES ARE SUMS OF VOLUMES ADDED TO THE LAKE SINCE INITIAL TIME)
     ---------------------------------------------------------------------------
 LAKE       PRECIP       EVAP       RUNOFF
   1     4.1035E+07  3.6436E+07  0.0000E+00

            GROUND WATER            SURFACE WATER
 LAKE    INFLOW     OUTFLOW      INFLOW     OUTFLOW
   1  1.0715E+08  0.0000E+00  0.0000E+00  0.0000E+00

         WATER    CONNECTED LAKE
 LAKE     USE         INFLUX
   1   0.0000E+00   0.0000E+00
 --------------------------------------------------------------------------------

 
 SOLVING FOR HEAD 
 ALL LAKES CONVERGED AFTER   2  ITERATIONS
 ALL LAKES CONVERGED AFTER   2  ITERATIONS
 ALL LAKES CONVERGED AFTER   2  ITERATIONS
 ALL LAKES CONVERGED AFTER   2  ITERATIONS
 ALL LAKES CONVERGED AFTER   2  ITERATIONS
 ALL LAKES CONVERGED AFTER   2  ITERATIONS
 ALL LAKES CONVERGED AFTER   2  ITERATIONS
 ALL LAKES CONVERGED AFTER   2  ITERATIONS
 ALL LAKES CONVERGED AFTER   2  ITERATIONS
 ALL LAKES CONVERGED AFTER   2  ITERATIONS
 ALL LAKES CONVERGED AFTER   2  ITERATIONS
 ALL LAKES CONVERGED AFTER   2  ITERATIONS
 ALL LAKES CONVERGED AFTER   2  ITERATIONS
 ALL LAKES CONVERGED AFTER   2  ITERATIONS
 ALL LAKES CONVERGED AFTER   2  ITERATIONS
 ALL LAKES CONVERGED AFTER   2  ITERATIONS
 ALL LAKES CONVERGED AFTER   2  ITERATIONS
 ALL LAKES CONVERGED AFTER   2  ITERATIONS
 ALL LAKES CONVERGED AFTER   2  ITERATIONS
 ALL LAKES CONVERGED AFTER   2  ITERATIONS
    20 ITERATIONS FOR TIME STEP  28 IN STRESS PERIOD    1

 MAXIMUM HEAD CHANGE FOR EACH ITERATION:

    HEAD CHANGE   HEAD CHANGE   HEAD CHANGE   HEAD CHANGE   HEAD CHANGE
  LAYER,ROW,COL LAYER,ROW,COL LAYER,ROW,COL LAYER,ROW,COL LAYER,ROW,COL
 ----------------------------------------------------------------------
     0.4000        0.2564        0.2322        0.9902E-01    0.1223    
  (  3,  9,  9) (  5, 10,  6) (  5, 10,  8) (  3,  8, 10) (  3, 10,  8)
     0.4281E-01    0.2732E-01    0.1514E-01    0.1852E-01    0.6576E-02
  (  2,  7,  7) (  5, 10,  8) (  3,  8, 10) (  3, 10,  8) (  3,  8, 10)
     0.7495E-02    0.3154E-02    0.2882E-02    0.1160E-02    0.1424E-02
  (  3,  8,  8) (  5,  9,  9) (  5, 10,  8) (  3,  8, 10) (  3, 10,  8)
     0.4995E-03    0.3128E-03    0.1761E-03    0.2191E-03    0.7862E-04
  (  2,  7,  7) (  5, 10,  8) (  3,  8, 10) (  3, 10,  8) (  2,  7, 10)


 HEAD/DRAWDOWN PRINTOUT FLAG = 0     TOTAL BUDGET PRINTOUT FLAG = 0
 CELL-BY-CELL FLOW TERM FLAG = 1

 OUTPUT FLAGS FOR ALL LAYERS ARE THE SAME:
   HEAD    DRAWDOWN  HEAD  DRAWDOWN
 PRINTOUT  PRINTOUT  SAVE    SAVE
 ----------------------------------
     0         0       0       0


     0  LAKE CELLS ARE DRY.

 PERIOD     1     TIME STEP    28     TIME STEP LENGTH  2.7334E+01
 PERIOD TIME  5.9333E+02     TOTAL SIMULATION TIME  5.9333E+02


                 HYDROLOGIC BUDGET SUMMARIES FOR SIMULATED LAKES
     (ALL FLUID FLUXES ARE VOLUMES ADDED TO THE LAKE DURING PRESENT TIME STEP)
     ----------------------------------------------------------------------------------------
 LAKE    STAGE       PRECIP         EVAP         RUNOFF
   1  1.288948E+02  1.981687E+06  1.759602E+06  0.000000E+00

            GROUND WATER            SURFACE WATER
 LAKE    INFLOW     OUTFLOW      INFLOW     OUTFLOW
   1  6.1265E+06  0.0000E+00  0.0000E+00  0.0000E+00

         WATER    CONNECTED LAKE   UPDATED     TIME-STEP          STAGE CHANGE
 LAKE     USE         INFLUX        VOLUME    SURFACE AREA   TIME STEP  CUMULATIVE
   1   0.0000E+00   0.0000E+00   1.5934E+08    6.2500E+06   1.0157E+00  1.8895E+01
 --------------------------------------------------------------------------------



            CUMULATIVE HYDROLOGIC BUDGET SUMMARIES FOR SIMULATED LAKES
     (ALL FLUID FLUXES ARE SUMS OF VOLUMES ADDED TO THE LAKE SINCE INITIAL TIME)
     ---------------------------------------------------------------------------
 LAKE       PRECIP       EVAP       RUNOFF
   1     4.3016E+07  3.8196E+07  0.0000E+00

            GROUND WATER            SURFACE WATER
 LAKE    INFLOW     OUTFLOW      INFLOW     OUTFLOW
   1  1.1328E+08  0.0000E+00  0.0000E+00  0.0000E+00

         WATER    CONNECTED LAKE
 LAKE     USE         INFLUX
   1   0.0000E+00   0.0000E+00
 --------------------------------------------------------------------------------

 
 SOLVING FOR HEAD 
 ALL LAKES CONVERGED AFTER   2  ITERATIONS
 ALL LAKES CONVERGED AFTER   2  ITERATIONS
 ALL LAKES CONVERGED AFTER   2  ITERATIONS
 ALL LAKES CONVERGED AFTER   2  ITERATIONS
 ALL LAKES CONVERGED AFTER   2  ITERATIONS
 ALL LAKES CONVERGED AFTER   2  ITERATIONS
 ALL LAKES CONVERGED AFTER   2  ITERATIONS
 ALL LAKES CONVERGED AFTER   2  ITERATIONS
 ALL LAKES CONVERGED AFTER   2  ITERATIONS
 ALL LAKES CONVERGED AFTER   2  ITERATIONS
 ALL LAKES CONVERGED AFTER   2  ITERATIONS
 ALL LAKES CONVERGED AFTER   2  ITERATIONS
 ALL LAKES CONVERGED AFTER   2  ITERATIONS
 ALL LAKES CONVERGED AFTER   2  ITERATIONS
 ALL LAKES CONVERGED AFTER   2  ITERATIONS
 ALL LAKES CONVERGED AFTER   2  ITERATIONS
 ALL LAKES CONVERGED AFTER   2  ITERATIONS
 ALL LAKES CONVERGED AFTER   2  ITERATIONS
 ALL LAKES CONVERGED AFTER   2  ITERATIONS
 ALL LAKES CONVERGED AFTER   2  ITERATIONS
    20 ITERATIONS FOR TIME STEP  29 IN STRESS PERIOD    1

 MAXIMUM HEAD CHANGE FOR EACH ITERATION:

    HEAD CHANGE   HEAD CHANGE   HEAD CHANGE   HEAD CHANGE   HEAD CHANGE
  LAYER,ROW,COL LAYER,ROW,COL LAYER,ROW,COL LAYER,ROW,COL LAYER,ROW,COL
 ----------------------------------------------------------------------
     0.3903        0.2490        0.2287        0.9824E-01    0.1216    
  (  3,  9,  9) (  5,  7,  9) (  5, 10,  8) (  3,  8, 10) (  3, 10,  8)
     0.4294E-01    0.2758E-01    0.1540E-01    0.1888E-01    0.6777E-02
  (  2,  7,  7) (  5, 10,  8) (  3,  8, 10) (  3, 10,  8) (  3,  8, 10)
     0.7729E-02    0.3275E-02    0.3014E-02    0.1220E-02    0.1504E-02
  (  3,  8,  8) (  5,  9,  9) (  5, 10,  8) (  3,  8, 10) (  3, 10,  8)
     0.5290E-03    0.3361E-03    0.2008E-03    0.2381E-03    0.8854E-04
  (  2,  7,  7) (  5, 10,  8) (  2,  8, 11) (  4, 10,  8) (  2,  7, 11)


 HEAD/DRAWDOWN PRINTOUT FLAG = 0     TOTAL BUDGET PRINTOUT FLAG = 0
 CELL-BY-CELL FLOW TERM FLAG = 1

 OUTPUT FLAGS FOR ALL LAYERS ARE THE SAME:
   HEAD    DRAWDOWN  HEAD  DRAWDOWN
 PRINTOUT  PRINTOUT  SAVE    SAVE
 ----------------------------------
     0         0       0       0


     0  LAKE CELLS ARE DRY.

 PERIOD     1     TIME STEP    29     TIME STEP LENGTH  2.7880E+01
 PERIOD TIME  6.2121E+02     TOTAL SIMULATION TIME  6.2121E+02


                 HYDROLOGIC BUDGET SUMMARIES FOR SIMULATED LAKES
     (ALL FLUID FLUXES ARE VOLUMES ADDED TO THE LAKE DURING PRESENT TIME STEP)
     ----------------------------------------------------------------------------------------
 LAKE    STAGE       PRECIP         EVAP         RUNOFF
   1  1.298925E+02  2.021321E+06  1.794794E+06  0.000000E+00

            GROUND WATER            SURFACE WATER
 LAKE    INFLOW     OUTFLOW      INFLOW     OUTFLOW
   1  6.0097E+06  0.0000E+00  0.0000E+00  0.0000E+00

         WATER    CONNECTED LAKE   UPDATED     TIME-STEP          STAGE CHANGE
 LAKE     USE         INFLUX        VOLUME    SURFACE AREA   TIME STEP  CUMULATIVE
   1   0.0000E+00   0.0000E+00   1.6558E+08    6.2500E+06   9.9776E-01  1.9893E+01
 --------------------------------------------------------------------------------



            CUMULATIVE HYDROLOGIC BUDGET SUMMARIES FOR SIMULATED LAKES
     (ALL FLUID FLUXES ARE SUMS OF VOLUMES ADDED TO THE LAKE SINCE INITIAL TIME)
     ---------------------------------------------------------------------------
 LAKE       PRECIP       EVAP       RUNOFF
   1     4.5038E+07  3.9990E+07  0.0000E+00

            GROUND WATER            SURFACE WATER
 LAKE    INFLOW     OUTFLOW      INFLOW     OUTFLOW
   1  1.1929E+08  0.0000E+00  0.0000E+00  0.0000E+00

         WATER    CONNECTED LAKE
 LAKE     USE         INFLUX
   1   0.0000E+00   0.0000E+00
 --------------------------------------------------------------------------------

 
 SOLVING FOR HEAD 
 ALL LAKES CONVERGED AFTER   2  ITERATIONS
 ALL LAKES CONVERGED AFTER   2  ITERATIONS
 ALL LAKES CONVERGED AFTER   2  ITERATIONS
 ALL LAKES CONVERGED AFTER   2  ITERATIONS
 ALL LAKES CONVERGED AFTER   2  ITERATIONS
 ALL LAKES CONVERGED AFTER   2  ITERATIONS
 ALL LAKES CONVERGED AFTER   2  ITERATIONS
 ALL LAKES CONVERGED AFTER   2  ITERATIONS
 ALL LAKES CONVERGED AFTER   2  ITERATIONS
 ALL LAKES CONVERGED AFTER   2  ITERATIONS
 ALL LAKES CONVERGED AFTER   2  ITERATIONS
 ALL LAKES CONVERGED AFTER   2  ITERATIONS
 ALL LAKES CONVERGED AFTER   2  ITERATIONS
 ALL LAKES CONVERGED AFTER   2  ITERATIONS
 ALL LAKES CONVERGED AFTER   2  ITERATIONS
 ALL LAKES CONVERGED AFTER   2  ITERATIONS
 ALL LAKES CONVERGED AFTER   2  ITERATIONS
 ALL LAKES CONVERGED AFTER   2  ITERATIONS
 ALL LAKES CONVERGED AFTER   2  ITERATIONS
 ALL LAKES CONVERGED AFTER   2  ITERATIONS
    20 ITERATIONS FOR TIME STEP  30 IN STRESS PERIOD    1

 MAXIMUM HEAD CHANGE FOR EACH ITERATION:

    HEAD CHANGE   HEAD CHANGE   HEAD CHANGE   HEAD CHANGE   HEAD CHANGE
  LAYER,ROW,COL LAYER,ROW,COL LAYER,ROW,COL LAYER,ROW,COL LAYER,ROW,COL
 ----------------------------------------------------------------------
     0.3788        0.2429        0.2242        0.9708E-01    0.1203    
  (  3,  9,  9) (  5,  7,  9) (  5, 10,  8) (  3,  8, 10) (  3, 10,  8)
     0.4289E-01    0.2773E-01    0.1560E-01    0.1917E-01    0.6947E-02
  (  2,  7,  7) (  5, 10,  8) (  3,  8, 10) (  3, 10,  8) (  3,  8, 10)
     0.7935E-02    0.3385E-02    0.3125E-02    0.1281E-02    0.1584E-02
  (  3,  8,  8) (  5,  9,  9) (  5, 10,  8) (  3,  8, 10) (  3, 10,  8)
     0.5668E-03    0.3687E-03    0.2066E-03    0.2476E-03    0.9031E-04
  (  2,  7,  7) (  5, 10,  8) (  3,  8, 10) (  4, 10,  8) (  3,  8, 10)


 HEAD/DRAWDOWN PRINTOUT FLAG = 1     TOTAL BUDGET PRINTOUT FLAG = 1
 CELL-BY-CELL FLOW TERM FLAG = 1

 OUTPUT FLAGS FOR EACH LAYER:
          HEAD    DRAWDOWN  HEAD  DRAWDOWN
 LAYER  PRINTOUT  PRINTOUT  SAVE    SAVE
 -----------------------------------------
    1       0         0       0       0
    2       0         0       0       0
    3       0         0       0       0
    4       0         0       0       0
    5       1         0       0       0


     0  LAKE CELLS ARE DRY.

 PERIOD     1     TIME STEP    30     TIME STEP LENGTH  2.8438E+01
 PERIOD TIME  6.4965E+02     TOTAL SIMULATION TIME  6.4965E+02


                 HYDROLOGIC BUDGET SUMMARIES FOR SIMULATED LAKES
     (ALL FLUID FLUXES ARE VOLUMES ADDED TO THE LAKE DURING PRESENT TIME STEP)
     ----------------------------------------------------------------------------------------
 LAKE    STAGE       PRECIP         EVAP         RUNOFF
   1  1.308686E+02  2.061748E+06  1.830690E+06  0.000000E+00

            GROUND WATER            SURFACE WATER
 LAKE    INFLOW     OUTFLOW      INFLOW     OUTFLOW
   1  5.8699E+06  0.0000E+00  0.0000E+00  0.0000E+00

         WATER    CONNECTED LAKE   UPDATED     TIME-STEP          STAGE CHANGE
 LAKE     USE         INFLUX        VOLUME    SURFACE AREA   TIME STEP  CUMULATIVE
   1   0.0000E+00   0.0000E+00   1.7168E+08    6.2500E+06   9.7606E-01  2.0869E+01
 --------------------------------------------------------------------------------



            CUMULATIVE HYDROLOGIC BUDGET SUMMARIES FOR SIMULATED LAKES
     (ALL FLUID FLUXES ARE SUMS OF VOLUMES ADDED TO THE LAKE SINCE INITIAL TIME)
     ---------------------------------------------------------------------------
 LAKE       PRECIP       EVAP       RUNOFF
   1     4.7099E+07  4.1821E+07  0.0000E+00

            GROUND WATER            SURFACE WATER
 LAKE    INFLOW     OUTFLOW      INFLOW     OUTFLOW
   1  1.2516E+08  0.0000E+00  0.0000E+00  0.0000E+00

         WATER    CONNECTED LAKE
 LAKE     USE         INFLUX
   1   0.0000E+00   0.0000E+00
 --------------------------------------------------------------------------------

1
              HEAD IN LAYER   5 AT END OF TIME STEP  30 IN STRESS PERIOD    1
  ---------------------------------------------------------------------------

          1      2      3      4      5      6      7      8      9     10
 .........................................................................
   1   160.0  158.9  157.3  155.8  154.2  152.7  151.5  150.8  150.0  149.2
   2   160.0  158.5  156.5  154.8  153.0  151.4  150.1  149.4  148.6  147.8
   3   160.0  158.2  155.8  153.7  151.7  149.7  148.4  147.6  146.8  146.0
   4   160.0  158.0  155.3  152.8  150.5  148.2  146.7  145.7  144.9  144.2
   5   160.0  157.8  154.8  152.1  149.2  146.3  144.2  143.1  142.3  141.7
   6   160.0  157.7  154.5  151.3  147.8  143.5  139.7  138.3  137.5  137.2
   7   160.0  157.6  154.3  150.9  146.8  140.6  131.0  130.6  130.6  130.6
   8   160.0  157.6  154.2  150.8  146.4  139.8  130.7  130.4  130.4  130.4
   9   160.0  157.6  154.2  150.7  146.3  139.5  130.7  130.4  130.4  130.4
  10   160.0  157.6  154.2  150.8  146.4  139.8  130.7  130.4  130.4  130.4
  11   160.0  157.6  154.3  150.9  146.8  140.6  131.0  130.6  130.6  130.6
  12   160.0  157.7  154.5  151.3  147.8  143.5  139.7  138.3  137.5  137.2
  13   160.0  157.8  154.8  152.1  149.2  146.3  144.2  143.1  142.3  141.7
  14   160.0  158.0  155.3  152.8  150.5  148.2  146.7  145.7  144.9  144.2
  15   160.0  158.2  155.8  153.7  151.7  149.7  148.4  147.6  146.8  146.0
  16   160.0  158.5  156.5  154.8  153.0  151.4  150.1  149.4  148.6  147.8
  17   160.0  158.9  157.3  155.8  154.2  152.7  151.5  150.8  150.0  149.2
1
              HEAD IN LAYER   5 AT END OF TIME STEP  30 IN STRESS PERIOD    1
  ---------------------------------------------------------------------------

         11     12     13     14     15     16     17
 ....................................................
   1   148.5  147.3  145.8  144.2  142.7  141.1  140.0
   2   147.1  145.9  144.5  143.1  141.7  140.5  140.0
   3   145.3  144.3  143.1  141.9  140.9  140.1  140.0
   4   143.6  142.9  142.0  141.1  140.4  139.9  140.0
   5   141.4  141.1  140.8  140.4  139.9  139.7  140.0
   6   137.4  138.7  139.6  139.7  139.6  139.6  140.0
   7   130.8  136.4  138.8  139.4  139.5  139.6  140.0
   8   130.6  135.7  138.4  139.2  139.4  139.5  140.0
   9   130.5  135.5  138.3  139.2  139.4  139.5  140.0
  10   130.6  135.7  138.4  139.2  139.4  139.5  140.0
  11   130.8  136.4  138.8  139.4  139.5  139.6  140.0
  12   137.4  138.7  139.6  139.7  139.6  139.6  140.0
  13   141.4  141.1  140.8  140.4  139.9  139.7  140.0
  14   143.6  142.9  142.0  141.1  140.4  139.9  140.0
  15   145.3  144.3  143.1  141.9  140.9  140.1  140.0
  16   147.1  145.9  144.5  143.1  141.7  140.5  140.0
  17   148.5  147.3  145.8  144.2  142.7  141.1  140.0
1
  VOLUMETRIC BUDGET FOR ENTIRE MODEL AT END OF TIME STEP 30 IN STRESS PERIOD   1
  ------------------------------------------------------------------------------

     CUMULATIVE VOLUMES      L**3       RATES FOR THIS TIME STEP      L**3/T
     ------------------                 ------------------------

           IN:                                      IN:
           ---                                      ---
             STORAGE =       32205.5820               STORAGE =           0.0000
       CONSTANT HEAD =   542006912.0000         CONSTANT HEAD =      228445.7344
                  ET =           0.0000                    ET =           0.0000
            RECHARGE =  1130384768.0000              RECHARGE =     1740000.0000
     SPECIFIED FLOWS =           0.0000       SPECIFIED FLOWS =           0.0000
       LAKE  SEEPAGE =           0.0000         LAKE  SEEPAGE =           0.0000

            TOTAL IN =  1672423936.0000              TOTAL IN =     1968445.7500

          OUT:                                     OUT:
          ----                                     ----
             STORAGE =   939677056.0000               STORAGE =      188034.6562
       CONSTANT HEAD =     1154505.6250         CONSTANT HEAD =        4476.3247
                  ET =   606420224.0000                    ET =     1569493.5000
            RECHARGE =           0.0000              RECHARGE =           0.0000
     SPECIFIED FLOWS =           0.0000       SPECIFIED FLOWS =           0.0000
       LAKE  SEEPAGE =   125160856.0000         LAKE  SEEPAGE =      206412.1250

           TOTAL OUT =  1672412672.0000             TOTAL OUT =     1968416.6250

            IN - OUT =       11264.0000              IN - OUT =          29.1250

 PERCENT DISCREPANCY =           0.00     PERCENT DISCREPANCY =           0.00






          TIME SUMMARY AT END OF TIME STEP  30 IN STRESS PERIOD    1
                    SECONDS     MINUTES      HOURS       DAYS        YEARS
                    -----------------------------------------------------------
   TIME STEP LENGTH 2.45703E+06  40951.      682.51      28.438     7.78587E-02
 STRESS PERIOD TIME 5.61295E+07 9.35491E+05  15592.      649.65      1.7786    
         TOTAL TIME 5.61295E+07 9.35491E+05  15592.      649.65      1.7786    
1
 
 SOLVING FOR HEAD 
 ALL LAKES CONVERGED AFTER   2  ITERATIONS
 ALL LAKES CONVERGED AFTER   2  ITERATIONS
 ALL LAKES CONVERGED AFTER   2  ITERATIONS
 ALL LAKES CONVERGED AFTER   2  ITERATIONS
 ALL LAKES CONVERGED AFTER   2  ITERATIONS
 ALL LAKES CONVERGED AFTER   2  ITERATIONS
 ALL LAKES CONVERGED AFTER   2  ITERATIONS
 ALL LAKES CONVERGED AFTER   2  ITERATIONS
 ALL LAKES CONVERGED AFTER   2  ITERATIONS
 ALL LAKES CONVERGED AFTER   2  ITERATIONS
 ALL LAKES CONVERGED AFTER   2  ITERATIONS
 ALL LAKES CONVERGED AFTER   2  ITERATIONS
 ALL LAKES CONVERGED AFTER   2  ITERATIONS
 ALL LAKES CONVERGED AFTER   2  ITERATIONS
 ALL LAKES CONVERGED AFTER   2  ITERATIONS
 ALL LAKES CONVERGED AFTER   2  ITERATIONS
 ALL LAKES CONVERGED AFTER   2  ITERATIONS
 ALL LAKES CONVERGED AFTER   2  ITERATIONS
 ALL LAKES CONVERGED AFTER   2  ITERATIONS
 ALL LAKES CONVERGED AFTER   2  ITERATIONS
 ALL LAKES CONVERGED AFTER   1  ITERATIONS
 ALL LAKES CONVERGED AFTER   1  ITERATIONS
    22 ITERATIONS FOR TIME STEP  31 IN STRESS PERIOD    1

 MAXIMUM HEAD CHANGE FOR EACH ITERATION:

    HEAD CHANGE   HEAD CHANGE   HEAD CHANGE   HEAD CHANGE   HEAD CHANGE
  LAYER,ROW,COL LAYER,ROW,COL LAYER,ROW,COL LAYER,ROW,COL LAYER,ROW,COL
 ----------------------------------------------------------------------
     0.3662        0.2360        0.2189        0.9560E-01    0.1187    
  (  3,  9,  9) (  5,  7,  9) (  5, 10,  8) (  3,  8, 10) (  3, 10,  8)
     0.4270E-01    0.2778E-01    0.1576E-01    0.1941E-01    0.7088E-02
  (  2,  7,  7) (  5, 10,  8) (  3,  8, 10) (  3, 10,  8) (  3,  8, 10)
     0.8114E-02    0.3493E-02    0.3239E-02    0.1341E-02    0.1662E-02
  (  3,  8,  8) (  5,  9,  9) (  5, 10,  8) (  3,  8, 10) (  3, 10,  8)
     0.5958E-03    0.3918E-03    0.2228E-03    0.2681E-03    0.1004E-03
  (  2,  7,  7) (  5, 10,  8) (  3,  9, 11) (  5, 10,  8) (  3,  8, 10)
     0.1128E-03    0.4564E-04
  (  2, 11,  8) (  5,  9,  9)


 HEAD/DRAWDOWN PRINTOUT FLAG = 0     TOTAL BUDGET PRINTOUT FLAG = 0
 CELL-BY-CELL FLOW TERM FLAG = 1

 OUTPUT FLAGS FOR ALL LAYERS ARE THE SAME:
   HEAD    DRAWDOWN  HEAD  DRAWDOWN
 PRINTOUT  PRINTOUT  SAVE    SAVE
 ----------------------------------
     0         0       0       0


     0  LAKE CELLS ARE DRY.

 PERIOD     1     TIME STEP    31     TIME STEP LENGTH  2.9007E+01
 PERIOD TIME  6.7865E+02     TOTAL SIMULATION TIME  6.7865E+02


                 HYDROLOGIC BUDGET SUMMARIES FOR SIMULATED LAKES
     (ALL FLUID FLUXES ARE VOLUMES ADDED TO THE LAKE DURING PRESENT TIME STEP)
     ----------------------------------------------------------------------------------------
 LAKE    STAGE       PRECIP         EVAP         RUNOFF
   1  1.318204E+02  2.102982E+06  1.867304E+06  0.000000E+00

            GROUND WATER            SURFACE WATER
 LAKE    INFLOW     OUTFLOW      INFLOW     OUTFLOW
   1  5.7134E+06  0.0000E+00  0.0000E+00  0.0000E+00

         WATER    CONNECTED LAKE   UPDATED     TIME-STEP          STAGE CHANGE
 LAKE     USE         INFLUX        VOLUME    SURFACE AREA   TIME STEP  CUMULATIVE
   1   0.0000E+00   0.0000E+00   1.7763E+08    6.2500E+06   9.5175E-01  2.1820E+01
 --------------------------------------------------------------------------------



            CUMULATIVE HYDROLOGIC BUDGET SUMMARIES FOR SIMULATED LAKES
     (ALL FLUID FLUXES ARE SUMS OF VOLUMES ADDED TO THE LAKE SINCE INITIAL TIME)
     ---------------------------------------------------------------------------
 LAKE       PRECIP       EVAP       RUNOFF
   1     4.9202E+07  4.3688E+07  0.0000E+00

            GROUND WATER            SURFACE WATER
 LAKE    INFLOW     OUTFLOW      INFLOW     OUTFLOW
   1  1.3087E+08  0.0000E+00  0.0000E+00  0.0000E+00

         WATER    CONNECTED LAKE
 LAKE     USE         INFLUX
   1   0.0000E+00   0.0000E+00
 --------------------------------------------------------------------------------

 
 SOLVING FOR HEAD 
 ALL LAKES CONVERGED AFTER   2  ITERATIONS
 ALL LAKES CONVERGED AFTER   2  ITERATIONS
 ALL LAKES CONVERGED AFTER   2  ITERATIONS
 ALL LAKES CONVERGED AFTER   2  ITERATIONS
 ALL LAKES CONVERGED AFTER   2  ITERATIONS
 ALL LAKES CONVERGED AFTER   2  ITERATIONS
 ALL LAKES CONVERGED AFTER   2  ITERATIONS
 ALL LAKES CONVERGED AFTER   2  ITERATIONS
 ALL LAKES CONVERGED AFTER   2  ITERATIONS
 ALL LAKES CONVERGED AFTER   2  ITERATIONS
 ALL LAKES CONVERGED AFTER   2  ITERATIONS
 ALL LAKES CONVERGED AFTER   2  ITERATIONS
 ALL LAKES CONVERGED AFTER   2  ITERATIONS
 ALL LAKES CONVERGED AFTER   2  ITERATIONS
 ALL LAKES CONVERGED AFTER   2  ITERATIONS
 ALL LAKES CONVERGED AFTER   2  ITERATIONS
 ALL LAKES CONVERGED AFTER   2  ITERATIONS
 ALL LAKES CONVERGED AFTER   2  ITERATIONS
 ALL LAKES CONVERGED AFTER   2  ITERATIONS
 ALL LAKES CONVERGED AFTER   2  ITERATIONS
 ALL LAKES CONVERGED AFTER   1  ITERATIONS
 ALL LAKES CONVERGED AFTER   1  ITERATIONS
    22 ITERATIONS FOR TIME STEP  32 IN STRESS PERIOD    1

 MAXIMUM HEAD CHANGE FOR EACH ITERATION:

    HEAD CHANGE   HEAD CHANGE   HEAD CHANGE   HEAD CHANGE   HEAD CHANGE
  LAYER,ROW,COL LAYER,ROW,COL LAYER,ROW,COL LAYER,ROW,COL LAYER,ROW,COL
 ----------------------------------------------------------------------
     0.3528        0.2287        0.2131        0.9388E-01    0.1167    
  (  3,  9,  9) (  5,  7,  9) (  5, 10,  8) (  3,  8, 10) (  3, 10,  8)
     0.4237E-01    0.2774E-01    0.1586E-01    0.1957E-01    0.7229E-02
  (  2,  7,  7) (  5, 10,  8) (  3,  8, 10) (  3, 10,  8) (  3,  8, 10)
     0.8282E-02    0.3590E-02    0.3340E-02    0.1392E-02    0.1724E-02
  (  3,  8,  8) (  5,  9,  9) (  5, 10,  8) (  3,  8, 10) (  3, 10,  8)
     0.6251E-03    0.4151E-03    0.2331E-03    0.2868E-03    0.1182E-03
  (  2,  7,  7) (  5, 10,  8) (  3,  9, 11) (  3, 10,  8) (  2,  8, 11)
     0.1223E-03    0.5611E-04
  (  3,  8,  8) (  5,  9,  9)


 HEAD/DRAWDOWN PRINTOUT FLAG = 0     TOTAL BUDGET PRINTOUT FLAG = 0
 CELL-BY-CELL FLOW TERM FLAG = 1

 OUTPUT FLAGS FOR ALL LAYERS ARE THE SAME:
   HEAD    DRAWDOWN  HEAD  DRAWDOWN
 PRINTOUT  PRINTOUT  SAVE    SAVE
 ----------------------------------
     0         0       0       0


     0  LAKE CELLS ARE DRY.

 PERIOD     1     TIME STEP    32     TIME STEP LENGTH  2.9587E+01
 PERIOD TIME  7.0824E+02     TOTAL SIMULATION TIME  7.0824E+02


                 HYDROLOGIC BUDGET SUMMARIES FOR SIMULATED LAKES
     (ALL FLUID FLUXES ARE VOLUMES ADDED TO THE LAKE DURING PRESENT TIME STEP)
     ----------------------------------------------------------------------------------------
 LAKE    STAGE       PRECIP         EVAP         RUNOFF
   1  1.327455E+02  2.145042E+06  1.904650E+06  0.000000E+00

            GROUND WATER            SURFACE WATER
 LAKE    INFLOW     OUTFLOW      INFLOW     OUTFLOW
   1  5.5423E+06  0.0000E+00  0.0000E+00  0.0000E+00

         WATER    CONNECTED LAKE   UPDATED     TIME-STEP          STAGE CHANGE
 LAKE     USE         INFLUX        VOLUME    SURFACE AREA   TIME STEP  CUMULATIVE
   1   0.0000E+00   0.0000E+00   1.8341E+08    6.2500E+06   9.2512E-01  2.2745E+01
 --------------------------------------------------------------------------------



            CUMULATIVE HYDROLOGIC BUDGET SUMMARIES FOR SIMULATED LAKES
     (ALL FLUID FLUXES ARE SUMS OF VOLUMES ADDED TO THE LAKE SINCE INITIAL TIME)
     ---------------------------------------------------------------------------
 LAKE       PRECIP       EVAP       RUNOFF
   1     5.1347E+07  4.5593E+07  0.0000E+00

            GROUND WATER            SURFACE WATER
 LAKE    INFLOW     OUTFLOW      INFLOW     OUTFLOW
   1  1.3642E+08  0.0000E+00  0.0000E+00  0.0000E+00

         WATER    CONNECTED LAKE
 LAKE     USE         INFLUX
   1   0.0000E+00   0.0000E+00
 --------------------------------------------------------------------------------

 
 SOLVING FOR HEAD 
 ALL LAKES CONVERGED AFTER   2  ITERATIONS
 ALL LAKES CONVERGED AFTER   2  ITERATIONS
 ALL LAKES CONVERGED AFTER   2  ITERATIONS
 ALL LAKES CONVERGED AFTER   2  ITERATIONS
 ALL LAKES CONVERGED AFTER   2  ITERATIONS
 ALL LAKES CONVERGED AFTER   2  ITERATIONS
 ALL LAKES CONVERGED AFTER   2  ITERATIONS
 ALL LAKES CONVERGED AFTER   2  ITERATIONS
 ALL LAKES CONVERGED AFTER   2  ITERATIONS
 ALL LAKES CONVERGED AFTER   2  ITERATIONS
 ALL LAKES CONVERGED AFTER   2  ITERATIONS
 ALL LAKES CONVERGED AFTER   2  ITERATIONS
 ALL LAKES CONVERGED AFTER   2  ITERATIONS
 ALL LAKES CONVERGED AFTER   2  ITERATIONS
 ALL LAKES CONVERGED AFTER   2  ITERATIONS
 ALL LAKES CONVERGED AFTER   2  ITERATIONS
 ALL LAKES CONVERGED AFTER   2  ITERATIONS
 ALL LAKES CONVERGED AFTER   2  ITERATIONS
 ALL LAKES CONVERGED AFTER   2  ITERATIONS
 ALL LAKES CONVERGED AFTER   2  ITERATIONS
 ALL LAKES CONVERGED AFTER   1  ITERATIONS
 ALL LAKES CONVERGED AFTER   2  ITERATIONS
    22 ITERATIONS FOR TIME STEP  33 IN STRESS PERIOD    1

 MAXIMUM HEAD CHANGE FOR EACH ITERATION:

    HEAD CHANGE   HEAD CHANGE   HEAD CHANGE   HEAD CHANGE   HEAD CHANGE
  LAYER,ROW,COL LAYER,ROW,COL LAYER,ROW,COL LAYER,ROW,COL LAYER,ROW,COL
 ----------------------------------------------------------------------
     0.3388        0.2209        0.2068        0.9191E-01    0.1145    
  (  3,  9,  9) (  5,  7,  9) (  5, 10,  8) (  3,  8, 10) (  3, 10,  8)
     0.4191E-01    0.2762E-01    0.1590E-01    0.1968E-01    0.7329E-02
  (  2,  7,  7) (  5, 10,  8) (  3,  8, 10) (  3, 10,  8) (  3,  8, 10)
     0.8404E-02    0.3676E-02    0.3437E-02    0.1442E-02    0.1793E-02
  (  3,  8,  8) (  5,  9,  9) (  5, 10,  8) (  3,  8, 10) (  3, 10,  8)
     0.6624E-03    0.4294E-03    0.2484E-03    0.3051E-03    0.1180E-03
  (  2,  7,  7) (  5, 10,  8) (  3,  8, 10) (  3, 10,  8) (  2,  7, 11)
     0.1315E-03    0.5664E-04
  (  2,  7,  7) (  5,  9,  9)


 HEAD/DRAWDOWN PRINTOUT FLAG = 0     TOTAL BUDGET PRINTOUT FLAG = 0
 CELL-BY-CELL FLOW TERM FLAG = 1

 OUTPUT FLAGS FOR ALL LAYERS ARE THE SAME:
   HEAD    DRAWDOWN  HEAD  DRAWDOWN
 PRINTOUT  PRINTOUT  SAVE    SAVE
 ----------------------------------
     0         0       0       0


     0  LAKE CELLS ARE DRY.

 PERIOD     1     TIME STEP    33     TIME STEP LENGTH  3.0179E+01
 PERIOD TIME  7.3842E+02     TOTAL SIMULATION TIME  7.3842E+02


                 HYDROLOGIC BUDGET SUMMARIES FOR SIMULATED LAKES
     (ALL FLUID FLUXES ARE VOLUMES ADDED TO THE LAKE DURING PRESENT TIME STEP)
     ----------------------------------------------------------------------------------------
 LAKE    STAGE       PRECIP         EVAP         RUNOFF
   1  1.336422E+02  2.187943E+06  1.942743E+06  0.000000E+00

            GROUND WATER            SURFACE WATER
 LAKE    INFLOW     OUTFLOW      INFLOW     OUTFLOW
   1  5.3602E+06  0.0000E+00  0.0000E+00  0.0000E+00

         WATER    CONNECTED LAKE   UPDATED     TIME-STEP          STAGE CHANGE
 LAKE     USE         INFLUX        VOLUME    SURFACE AREA   TIME STEP  CUMULATIVE
   1   0.0000E+00   0.0000E+00   1.8901E+08    6.2500E+06   8.9674E-01  2.3642E+01
 --------------------------------------------------------------------------------



            CUMULATIVE HYDROLOGIC BUDGET SUMMARIES FOR SIMULATED LAKES
     (ALL FLUID FLUXES ARE SUMS OF VOLUMES ADDED TO THE LAKE SINCE INITIAL TIME)
     ---------------------------------------------------------------------------
 LAKE       PRECIP       EVAP       RUNOFF
   1     5.3535E+07  4.7536E+07  0.0000E+00

            GROUND WATER            SURFACE WATER
 LAKE    INFLOW     OUTFLOW      INFLOW     OUTFLOW
   1  1.4178E+08  0.0000E+00  0.0000E+00  0.0000E+00

         WATER    CONNECTED LAKE
 LAKE     USE         INFLUX
   1   0.0000E+00   0.0000E+00
 --------------------------------------------------------------------------------

 
 SOLVING FOR HEAD 
 ALL LAKES CONVERGED AFTER   2  ITERATIONS
 ALL LAKES CONVERGED AFTER   2  ITERATIONS
 ALL LAKES CONVERGED AFTER   2  ITERATIONS
 ALL LAKES CONVERGED AFTER   2  ITERATIONS
 ALL LAKES CONVERGED AFTER   2  ITERATIONS
 ALL LAKES CONVERGED AFTER   2  ITERATIONS
 ALL LAKES CONVERGED AFTER   2  ITERATIONS
 ALL LAKES CONVERGED AFTER   2  ITERATIONS
 ALL LAKES CONVERGED AFTER   2  ITERATIONS
 ALL LAKES CONVERGED AFTER   2  ITERATIONS
 ALL LAKES CONVERGED AFTER   2  ITERATIONS
 ALL LAKES CONVERGED AFTER   2  ITERATIONS
 ALL LAKES CONVERGED AFTER   2  ITERATIONS
 ALL LAKES CONVERGED AFTER   2  ITERATIONS
 ALL LAKES CONVERGED AFTER   2  ITERATIONS
 ALL LAKES CONVERGED AFTER   2  ITERATIONS
 ALL LAKES CONVERGED AFTER   2  ITERATIONS
 ALL LAKES CONVERGED AFTER   2  ITERATIONS
 ALL LAKES CONVERGED AFTER   2  ITERATIONS
 ALL LAKES CONVERGED AFTER   2  ITERATIONS
 ALL LAKES CONVERGED AFTER   1  ITERATIONS
 ALL LAKES CONVERGED AFTER   2  ITERATIONS
    22 ITERATIONS FOR TIME STEP  34 IN STRESS PERIOD    1

 MAXIMUM HEAD CHANGE FOR EACH ITERATION:

    HEAD CHANGE   HEAD CHANGE   HEAD CHANGE   HEAD CHANGE   HEAD CHANGE
  LAYER,ROW,COL LAYER,ROW,COL LAYER,ROW,COL LAYER,ROW,COL LAYER,ROW,COL
 ----------------------------------------------------------------------
     0.3245        0.2128        0.2001        0.8972E-01    0.1119    
  (  3,  9,  9) (  5,  7,  9) (  5, 10,  8) (  3,  8, 10) (  3, 10,  8)
     0.4135E-01    0.2741E-01    0.1592E-01    0.1974E-01    0.7409E-02
  (  2,  7,  7) (  5, 10,  8) (  3,  8, 10) (  3, 10,  8) (  3,  8, 10)
     0.8517E-02    0.3751E-02    0.3519E-02    0.1493E-02    0.1863E-02
  (  3,  8,  8) (  5,  9,  9) (  5, 10,  8) (  3,  8, 10) (  3, 10,  8)
     0.6827E-03    0.4519E-03    0.2681E-03    0.3329E-03    0.1277E-03
  (  2,  7,  7) (  5, 10,  8) (  3,  8, 10) (  3, 10,  8) (  2,  7, 10)
     0.1407E-03    0.5902E-04
  (  3,  8,  8) (  2,  7,  9)


 HEAD/DRAWDOWN PRINTOUT FLAG = 0     TOTAL BUDGET PRINTOUT FLAG = 0
 CELL-BY-CELL FLOW TERM FLAG = 1

 OUTPUT FLAGS FOR ALL LAYERS ARE THE SAME:
   HEAD    DRAWDOWN  HEAD  DRAWDOWN
 PRINTOUT  PRINTOUT  SAVE    SAVE
 ----------------------------------
     0         0       0       0


     0  LAKE CELLS ARE DRY.

 PERIOD     1     TIME STEP    34     TIME STEP LENGTH  3.0782E+01
 PERIOD TIME  7.6920E+02     TOTAL SIMULATION TIME  7.6920E+02


                 HYDROLOGIC BUDGET SUMMARIES FOR SIMULATED LAKES
     (ALL FLUID FLUXES ARE VOLUMES ADDED TO THE LAKE DURING PRESENT TIME STEP)
     ----------------------------------------------------------------------------------------
 LAKE    STAGE       PRECIP         EVAP         RUNOFF
   1  1.345093E+02  2.231702E+06  1.981597E+06  0.000000E+00

            GROUND WATER            SURFACE WATER
 LAKE    INFLOW     OUTFLOW      INFLOW     OUTFLOW
   1  5.1697E+06  0.0000E+00  0.0000E+00  0.0000E+00

         WATER    CONNECTED LAKE   UPDATED     TIME-STEP          STAGE CHANGE
 LAKE     USE         INFLUX        VOLUME    SURFACE AREA   TIME STEP  CUMULATIVE
   1   0.0000E+00   0.0000E+00   1.9443E+08    6.2500E+06   8.6706E-01  2.4509E+01
 --------------------------------------------------------------------------------



            CUMULATIVE HYDROLOGIC BUDGET SUMMARIES FOR SIMULATED LAKES
     (ALL FLUID FLUXES ARE SUMS OF VOLUMES ADDED TO THE LAKE SINCE INITIAL TIME)
     ---------------------------------------------------------------------------
 LAKE       PRECIP       EVAP       RUNOFF
   1     5.5767E+07  4.9517E+07  0.0000E+00

            GROUND WATER            SURFACE WATER
 LAKE    INFLOW     OUTFLOW      INFLOW     OUTFLOW
   1  1.4695E+08  0.0000E+00  0.0000E+00  0.0000E+00

         WATER    CONNECTED LAKE
 LAKE     USE         INFLUX
   1   0.0000E+00   0.0000E+00
 --------------------------------------------------------------------------------

 
 SOLVING FOR HEAD 
 ALL LAKES CONVERGED AFTER   2  ITERATIONS
 ALL LAKES CONVERGED AFTER   2  ITERATIONS
 ALL LAKES CONVERGED AFTER   2  ITERATIONS
 ALL LAKES CONVERGED AFTER   2  ITERATIONS
 ALL LAKES CONVERGED AFTER   2  ITERATIONS
 ALL LAKES CONVERGED AFTER   2  ITERATIONS
 ALL LAKES CONVERGED AFTER   2  ITERATIONS
 ALL LAKES CONVERGED AFTER   2  ITERATIONS
 ALL LAKES CONVERGED AFTER   2  ITERATIONS
 ALL LAKES CONVERGED AFTER   2  ITERATIONS
 ALL LAKES CONVERGED AFTER   2  ITERATIONS
 ALL LAKES CONVERGED AFTER   2  ITERATIONS
 ALL LAKES CONVERGED AFTER   2  ITERATIONS
 ALL LAKES CONVERGED AFTER   2  ITERATIONS
 ALL LAKES CONVERGED AFTER   2  ITERATIONS
 ALL LAKES CONVERGED AFTER   2  ITERATIONS
 ALL LAKES CONVERGED AFTER   2  ITERATIONS
 ALL LAKES CONVERGED AFTER   2  ITERATIONS
 ALL LAKES CONVERGED AFTER   2  ITERATIONS
 ALL LAKES CONVERGED AFTER   2  ITERATIONS
 ALL LAKES CONVERGED AFTER   1  ITERATIONS
 ALL LAKES CONVERGED AFTER   2  ITERATIONS
    22 ITERATIONS FOR TIME STEP  35 IN STRESS PERIOD    1

 MAXIMUM HEAD CHANGE FOR EACH ITERATION:

    HEAD CHANGE   HEAD CHANGE   HEAD CHANGE   HEAD CHANGE   HEAD CHANGE
  LAYER,ROW,COL LAYER,ROW,COL LAYER,ROW,COL LAYER,ROW,COL LAYER,ROW,COL
 ----------------------------------------------------------------------
     0.3099        0.2045        0.1932        0.8736E-01    0.1092    
  (  3,  9,  9) (  5,  7,  9) (  5, 10,  8) (  3,  8, 10) (  3, 10,  8)
     0.4068E-01    0.2714E-01    0.1588E-01    0.1972E-01    0.7480E-02
  (  2,  7,  7) (  5, 10,  8) (  3,  8, 10) (  3, 10,  8) (  3,  8, 10)
     0.8610E-02    0.3815E-02    0.3596E-02    0.1533E-02    0.1923E-02
  (  3,  8,  8) (  5,  9,  9) (  5, 10,  8) (  3,  8, 10) (  3, 10,  8)
     0.7114E-03    0.4752E-03    0.2792E-03    0.3430E-03    0.1305E-03
  (  2,  7,  7) (  5, 10,  8) (  3,  8, 10) (  3, 10,  8) (  3,  8, 10)
     0.1504E-03    0.7348E-04
  (  2,  7,  7) (  4,  7,  8)


 HEAD/DRAWDOWN PRINTOUT FLAG = 0     TOTAL BUDGET PRINTOUT FLAG = 0
 CELL-BY-CELL FLOW TERM FLAG = 1

 OUTPUT FLAGS FOR ALL LAYERS ARE THE SAME:
   HEAD    DRAWDOWN  HEAD  DRAWDOWN
 PRINTOUT  PRINTOUT  SAVE    SAVE
 ----------------------------------
     0         0       0       0


     0  LAKE CELLS ARE DRY.

 PERIOD     1     TIME STEP    35     TIME STEP LENGTH  3.1398E+01
 PERIOD TIME  8.0060E+02     TOTAL SIMULATION TIME  8.0060E+02


                 HYDROLOGIC BUDGET SUMMARIES FOR SIMULATED LAKES
     (ALL FLUID FLUXES ARE VOLUMES ADDED TO THE LAKE DURING PRESENT TIME STEP)
     ----------------------------------------------------------------------------------------
 LAKE    STAGE       PRECIP         EVAP         RUNOFF
   1  1.353456E+02  2.276336E+06  2.021229E+06  0.000000E+00

            GROUND WATER            SURFACE WATER
 LAKE    INFLOW     OUTFLOW      INFLOW     OUTFLOW
   1  4.9728E+06  0.0000E+00  0.0000E+00  0.0000E+00

         WATER    CONNECTED LAKE   UPDATED     TIME-STEP          STAGE CHANGE
 LAKE     USE         INFLUX        VOLUME    SURFACE AREA   TIME STEP  CUMULATIVE
   1   0.0000E+00   0.0000E+00   1.9966E+08    6.2500E+06   8.3632E-01  2.5346E+01
 --------------------------------------------------------------------------------



            CUMULATIVE HYDROLOGIC BUDGET SUMMARIES FOR SIMULATED LAKES
     (ALL FLUID FLUXES ARE SUMS OF VOLUMES ADDED TO THE LAKE SINCE INITIAL TIME)
     ---------------------------------------------------------------------------
 LAKE       PRECIP       EVAP       RUNOFF
   1     5.8043E+07  5.1538E+07  0.0000E+00

            GROUND WATER            SURFACE WATER
 LAKE    INFLOW     OUTFLOW      INFLOW     OUTFLOW
   1  1.5192E+08  0.0000E+00  0.0000E+00  0.0000E+00

         WATER    CONNECTED LAKE
 LAKE     USE         INFLUX
   1   0.0000E+00   0.0000E+00
 --------------------------------------------------------------------------------

 
 SOLVING FOR HEAD 
 ALL LAKES CONVERGED AFTER   2  ITERATIONS
 ALL LAKES CONVERGED AFTER   2  ITERATIONS
 ALL LAKES CONVERGED AFTER   2  ITERATIONS
 ALL LAKES CONVERGED AFTER   2  ITERATIONS
 ALL LAKES CONVERGED AFTER   2  ITERATIONS
 ALL LAKES CONVERGED AFTER   2  ITERATIONS
 ALL LAKES CONVERGED AFTER   2  ITERATIONS
 ALL LAKES CONVERGED AFTER   2  ITERATIONS
 ALL LAKES CONVERGED AFTER   2  ITERATIONS
 ALL LAKES CONVERGED AFTER   2  ITERATIONS
 ALL LAKES CONVERGED AFTER   2  ITERATIONS
 ALL LAKES CONVERGED AFTER   2  ITERATIONS
 ALL LAKES CONVERGED AFTER   2  ITERATIONS
 ALL LAKES CONVERGED AFTER   2  ITERATIONS
 ALL LAKES CONVERGED AFTER   2  ITERATIONS
 ALL LAKES CONVERGED AFTER   2  ITERATIONS
 ALL LAKES CONVERGED AFTER   2  ITERATIONS
 ALL LAKES CONVERGED AFTER   2  ITERATIONS
 ALL LAKES CONVERGED AFTER   2  ITERATIONS
 ALL LAKES CONVERGED AFTER   2  ITERATIONS
 ALL LAKES CONVERGED AFTER   1  ITERATIONS
 ALL LAKES CONVERGED AFTER   2  ITERATIONS
    22 ITERATIONS FOR TIME STEP  36 IN STRESS PERIOD    1

 MAXIMUM HEAD CHANGE FOR EACH ITERATION:

    HEAD CHANGE   HEAD CHANGE   HEAD CHANGE   HEAD CHANGE   HEAD CHANGE
  LAYER,ROW,COL LAYER,ROW,COL LAYER,ROW,COL LAYER,ROW,COL LAYER,ROW,COL
 ----------------------------------------------------------------------
     0.2952        0.1960        0.1860        0.8485E-01    0.1062    
  (  3,  9,  9) (  5,  8, 10) (  5, 10,  8) (  3,  8, 10) (  3, 10,  8)
     0.3992E-01    0.2679E-01    0.1578E-01    0.1966E-01    0.7520E-02
  (  2,  7,  7) (  5, 10,  8) (  3,  8, 10) (  3, 10,  8) (  3,  8, 10)
     0.8666E-02    0.3867E-02    0.3663E-02    0.1583E-02    0.1982E-02
  (  3,  8,  8) (  5,  9,  9) (  5, 10,  8) (  3,  8, 10) (  3, 10,  8)
     0.7407E-03    0.4978E-03    0.2900E-03    0.3622E-03    0.1481E-03
  (  2,  7,  7) (  5, 10,  8) (  2,  7, 10) (  3, 10,  8) (  2,  8, 11)
     0.1653E-03    0.7754E-04
  (  2, 11, 10) (  5,  9,  9)


 HEAD/DRAWDOWN PRINTOUT FLAG = 0     TOTAL BUDGET PRINTOUT FLAG = 0
 CELL-BY-CELL FLOW TERM FLAG = 1

 OUTPUT FLAGS FOR ALL LAYERS ARE THE SAME:
   HEAD    DRAWDOWN  HEAD  DRAWDOWN
 PRINTOUT  PRINTOUT  SAVE    SAVE
 ----------------------------------
     0         0       0       0


     0  LAKE CELLS ARE DRY.

 PERIOD     1     TIME STEP    36     TIME STEP LENGTH  3.2026E+01
 PERIOD TIME  8.3262E+02     TOTAL SIMULATION TIME  8.3262E+02


                 HYDROLOGIC BUDGET SUMMARIES FOR SIMULATED LAKES
     (ALL FLUID FLUXES ARE VOLUMES ADDED TO THE LAKE DURING PRESENT TIME STEP)
     ----------------------------------------------------------------------------------------
 LAKE    STAGE       PRECIP         EVAP         RUNOFF
   1  1.361504E+02  2.321862E+06  2.061654E+06  0.000000E+00

            GROUND WATER            SURFACE WATER
 LAKE    INFLOW     OUTFLOW      INFLOW     OUTFLOW
   1  4.7711E+06  0.0000E+00  0.0000E+00  0.0000E+00

         WATER    CONNECTED LAKE   UPDATED     TIME-STEP          STAGE CHANGE
 LAKE     USE         INFLUX        VOLUME    SURFACE AREA   TIME STEP  CUMULATIVE
   1   0.0000E+00   0.0000E+00   2.0469E+08    6.2500E+06   8.0485E-01  2.6150E+01
 --------------------------------------------------------------------------------



            CUMULATIVE HYDROLOGIC BUDGET SUMMARIES FOR SIMULATED LAKES
     (ALL FLUID FLUXES ARE SUMS OF VOLUMES ADDED TO THE LAKE SINCE INITIAL TIME)
     ---------------------------------------------------------------------------
 LAKE       PRECIP       EVAP       RUNOFF
   1     6.0365E+07  5.3600E+07  0.0000E+00

            GROUND WATER            SURFACE WATER
 LAKE    INFLOW     OUTFLOW      INFLOW     OUTFLOW
   1  1.5669E+08  0.0000E+00  0.0000E+00  0.0000E+00

         WATER    CONNECTED LAKE
 LAKE     USE         INFLUX
   1   0.0000E+00   0.0000E+00
 --------------------------------------------------------------------------------

 
 SOLVING FOR HEAD 
 ALL LAKES CONVERGED AFTER   2  ITERATIONS
 ALL LAKES CONVERGED AFTER   2  ITERATIONS
 ALL LAKES CONVERGED AFTER   2  ITERATIONS
 ALL LAKES CONVERGED AFTER   2  ITERATIONS
 ALL LAKES CONVERGED AFTER   2  ITERATIONS
 ALL LAKES CONVERGED AFTER   2  ITERATIONS
 ALL LAKES CONVERGED AFTER   2  ITERATIONS
 ALL LAKES CONVERGED AFTER   2  ITERATIONS
 ALL LAKES CONVERGED AFTER   2  ITERATIONS
 ALL LAKES CONVERGED AFTER   2  ITERATIONS
 ALL LAKES CONVERGED AFTER   2  ITERATIONS
 ALL LAKES CONVERGED AFTER   2  ITERATIONS
 ALL LAKES CONVERGED AFTER   2  ITERATIONS
 ALL LAKES CONVERGED AFTER   2  ITERATIONS
 ALL LAKES CONVERGED AFTER   2  ITERATIONS
 ALL LAKES CONVERGED AFTER   2  ITERATIONS
 ALL LAKES CONVERGED AFTER   2  ITERATIONS
 ALL LAKES CONVERGED AFTER   2  ITERATIONS
 ALL LAKES CONVERGED AFTER   2  ITERATIONS
 ALL LAKES CONVERGED AFTER   2  ITERATIONS
 ALL LAKES CONVERGED AFTER   1  ITERATIONS
 ALL LAKES CONVERGED AFTER   2  ITERATIONS
    22 ITERATIONS FOR TIME STEP  37 IN STRESS PERIOD    1

 MAXIMUM HEAD CHANGE FOR EACH ITERATION:

    HEAD CHANGE   HEAD CHANGE   HEAD CHANGE   HEAD CHANGE   HEAD CHANGE
  LAYER,ROW,COL LAYER,ROW,COL LAYER,ROW,COL LAYER,ROW,COL LAYER,ROW,COL
 ----------------------------------------------------------------------
     0.2806        0.1874        0.1786        0.8222E-01    0.1031    
  (  3,  9,  9) (  5,  8, 10) (  5, 10,  8) (  3,  8, 10) (  3, 10,  8)
     0.3907E-01    0.2639E-01    0.1566E-01    0.1955E-01    0.7549E-02
  (  2,  7,  7) (  5, 10,  8) (  3,  8, 10) (  3, 10,  8) (  3,  8, 10)
     0.8704E-02    0.3909E-02    0.3717E-02    0.1624E-02    0.2032E-02
  (  3,  8,  8) (  5,  9,  9) (  5, 10,  8) (  3,  8, 10) (  3, 10,  8)
     0.7695E-03    0.5207E-03    0.3100E-03    0.3809E-03    0.1504E-03
  (  2,  7,  7) (  5, 10,  8) (  3,  8, 10) (  3, 10,  8) (  3,  8, 10)
     0.1688E-03    0.7807E-04
  (  2,  7,  7) (  5,  9,  9)


 HEAD/DRAWDOWN PRINTOUT FLAG = 0     TOTAL BUDGET PRINTOUT FLAG = 0
 CELL-BY-CELL FLOW TERM FLAG = 1

 OUTPUT FLAGS FOR ALL LAYERS ARE THE SAME:
   HEAD    DRAWDOWN  HEAD  DRAWDOWN
 PRINTOUT  PRINTOUT  SAVE    SAVE
 ----------------------------------
     0         0       0       0


     0  LAKE CELLS ARE DRY.

 PERIOD     1     TIME STEP    37     TIME STEP LENGTH  3.2666E+01
 PERIOD TIME  8.6529E+02     TOTAL SIMULATION TIME  8.6529E+02


                 HYDROLOGIC BUDGET SUMMARIES FOR SIMULATED LAKES
     (ALL FLUID FLUXES ARE VOLUMES ADDED TO THE LAKE DURING PRESENT TIME STEP)
     ----------------------------------------------------------------------------------------
 LAKE    STAGE       PRECIP         EVAP         RUNOFF
   1  1.369233E+02  2.368300E+06  2.102887E+06  0.000000E+00

            GROUND WATER            SURFACE WATER
 LAKE    INFLOW     OUTFLOW      INFLOW     OUTFLOW
   1  4.5660E+06  0.0000E+00  0.0000E+00  0.0000E+00

         WATER    CONNECTED LAKE   UPDATED     TIME-STEP          STAGE CHANGE
 LAKE     USE         INFLUX        VOLUME    SURFACE AREA   TIME STEP  CUMULATIVE
   1   0.0000E+00   0.0000E+00   2.0952E+08    6.2500E+06   7.7286E-01  2.6923E+01
 --------------------------------------------------------------------------------



            CUMULATIVE HYDROLOGIC BUDGET SUMMARIES FOR SIMULATED LAKES
     (ALL FLUID FLUXES ARE SUMS OF VOLUMES ADDED TO THE LAKE SINCE INITIAL TIME)
     ---------------------------------------------------------------------------
 LAKE       PRECIP       EVAP       RUNOFF
   1     6.2734E+07  5.5703E+07  0.0000E+00

            GROUND WATER            SURFACE WATER
 LAKE    INFLOW     OUTFLOW      INFLOW     OUTFLOW
   1  1.6126E+08  0.0000E+00  0.0000E+00  0.0000E+00

         WATER    CONNECTED LAKE
 LAKE     USE         INFLUX
   1   0.0000E+00   0.0000E+00
 --------------------------------------------------------------------------------

 
 SOLVING FOR HEAD 
 ALL LAKES CONVERGED AFTER   2  ITERATIONS
 ALL LAKES CONVERGED AFTER   2  ITERATIONS
 ALL LAKES CONVERGED AFTER   2  ITERATIONS
 ALL LAKES CONVERGED AFTER   2  ITERATIONS
 ALL LAKES CONVERGED AFTER   2  ITERATIONS
 ALL LAKES CONVERGED AFTER   2  ITERATIONS
 ALL LAKES CONVERGED AFTER   2  ITERATIONS
 ALL LAKES CONVERGED AFTER   2  ITERATIONS
 ALL LAKES CONVERGED AFTER   2  ITERATIONS
 ALL LAKES CONVERGED AFTER   2  ITERATIONS
 ALL LAKES CONVERGED AFTER   2  ITERATIONS
 ALL LAKES CONVERGED AFTER   2  ITERATIONS
 ALL LAKES CONVERGED AFTER   2  ITERATIONS
 ALL LAKES CONVERGED AFTER   2  ITERATIONS
 ALL LAKES CONVERGED AFTER   2  ITERATIONS
 ALL LAKES CONVERGED AFTER   2  ITERATIONS
 ALL LAKES CONVERGED AFTER   2  ITERATIONS
 ALL LAKES CONVERGED AFTER   2  ITERATIONS
 ALL LAKES CONVERGED AFTER   2  ITERATIONS
 ALL LAKES CONVERGED AFTER   2  ITERATIONS
 ALL LAKES CONVERGED AFTER   1  ITERATIONS
 ALL LAKES CONVERGED AFTER   2  ITERATIONS
    22 ITERATIONS FOR TIME STEP  38 IN STRESS PERIOD    1

 MAXIMUM HEAD CHANGE FOR EACH ITERATION:

    HEAD CHANGE   HEAD CHANGE   HEAD CHANGE   HEAD CHANGE   HEAD CHANGE
  LAYER,ROW,COL LAYER,ROW,COL LAYER,ROW,COL LAYER,ROW,COL LAYER,ROW,COL
 ----------------------------------------------------------------------
     0.2661        0.1789        0.1712        0.7948E-01    0.9981E-01
  (  3,  9,  9) (  5,  8, 10) (  5, 10,  8) (  3,  8, 10) (  3, 10,  8)
     0.3816E-01    0.2592E-01    0.1549E-01    0.1938E-01    0.7540E-02
  (  2,  7,  7) (  5, 10,  8) (  3,  8, 10) (  3, 10,  8) (  3,  8, 10)
     0.8722E-02    0.3957E-02    0.3763E-02    0.1654E-02    0.2082E-02
  (  3,  8,  8) (  5,  9,  9) (  5, 10,  8) (  3,  8, 10) (  3, 10,  8)
     0.7978E-03    0.5427E-03    0.3203E-03    0.4007E-03    0.1606E-03
  (  2,  7,  7) (  5, 10,  8) (  3,  8, 10) (  4, 10,  8) (  3,  8, 10)
     0.1873E-03    0.8835E-04
  (  3,  8,  8) (  5,  9,  9)


 HEAD/DRAWDOWN PRINTOUT FLAG = 0     TOTAL BUDGET PRINTOUT FLAG = 0
 CELL-BY-CELL FLOW TERM FLAG = 1

 OUTPUT FLAGS FOR ALL LAYERS ARE THE SAME:
   HEAD    DRAWDOWN  HEAD  DRAWDOWN
 PRINTOUT  PRINTOUT  SAVE    SAVE
 ----------------------------------
     0         0       0       0


     0  LAKE CELLS ARE DRY.

 PERIOD     1     TIME STEP    38     TIME STEP LENGTH  3.3320E+01
 PERIOD TIME  8.9861E+02     TOTAL SIMULATION TIME  8.9861E+02


                 HYDROLOGIC BUDGET SUMMARIES FOR SIMULATED LAKES
     (ALL FLUID FLUXES ARE VOLUMES ADDED TO THE LAKE DURING PRESENT TIME STEP)
     ----------------------------------------------------------------------------------------
 LAKE    STAGE       PRECIP         EVAP         RUNOFF
   1  1.376640E+02  2.415666E+06  2.144944E+06  0.000000E+00

            GROUND WATER            SURFACE WATER
 LAKE    INFLOW     OUTFLOW      INFLOW     OUTFLOW
   1  4.3595E+06  0.0000E+00  0.0000E+00  0.0000E+00

         WATER    CONNECTED LAKE   UPDATED     TIME-STEP          STAGE CHANGE
 LAKE     USE         INFLUX        VOLUME    SURFACE AREA   TIME STEP  CUMULATIVE
   1   0.0000E+00   0.0000E+00   2.1415E+08    6.2500E+06   7.4070E-01  2.7664E+01
 --------------------------------------------------------------------------------



            CUMULATIVE HYDROLOGIC BUDGET SUMMARIES FOR SIMULATED LAKES
     (ALL FLUID FLUXES ARE SUMS OF VOLUMES ADDED TO THE LAKE SINCE INITIAL TIME)
     ---------------------------------------------------------------------------
 LAKE       PRECIP       EVAP       RUNOFF
   1     6.5149E+07  5.7848E+07  0.0000E+00

            GROUND WATER            SURFACE WATER
 LAKE    INFLOW     OUTFLOW      INFLOW     OUTFLOW
   1  1.6562E+08  0.0000E+00  0.0000E+00  0.0000E+00

         WATER    CONNECTED LAKE
 LAKE     USE         INFLUX
   1   0.0000E+00   0.0000E+00
 --------------------------------------------------------------------------------

 
 SOLVING FOR HEAD 
 ALL LAKES CONVERGED AFTER   2  ITERATIONS
 ALL LAKES CONVERGED AFTER   2  ITERATIONS
 ALL LAKES CONVERGED AFTER   2  ITERATIONS
 ALL LAKES CONVERGED AFTER   2  ITERATIONS
 ALL LAKES CONVERGED AFTER   2  ITERATIONS
 ALL LAKES CONVERGED AFTER   2  ITERATIONS
 ALL LAKES CONVERGED AFTER   2  ITERATIONS
 ALL LAKES CONVERGED AFTER   2  ITERATIONS
 ALL LAKES CONVERGED AFTER   2  ITERATIONS
 ALL LAKES CONVERGED AFTER   2  ITERATIONS
 ALL LAKES CONVERGED AFTER   2  ITERATIONS
 ALL LAKES CONVERGED AFTER   2  ITERATIONS
 ALL LAKES CONVERGED AFTER   2  ITERATIONS
 ALL LAKES CONVERGED AFTER   2  ITERATIONS
 ALL LAKES CONVERGED AFTER   2  ITERATIONS
 ALL LAKES CONVERGED AFTER   2  ITERATIONS
 ALL LAKES CONVERGED AFTER   2  ITERATIONS
 ALL LAKES CONVERGED AFTER   2  ITERATIONS
 ALL LAKES CONVERGED AFTER   2  ITERATIONS
 ALL LAKES CONVERGED AFTER   2  ITERATIONS
 ALL LAKES CONVERGED AFTER   1  ITERATIONS
 ALL LAKES CONVERGED AFTER   2  ITERATIONS
    22 ITERATIONS FOR TIME STEP  39 IN STRESS PERIOD    1

 MAXIMUM HEAD CHANGE FOR EACH ITERATION:

    HEAD CHANGE   HEAD CHANGE   HEAD CHANGE   HEAD CHANGE   HEAD CHANGE
  LAYER,ROW,COL LAYER,ROW,COL LAYER,ROW,COL LAYER,ROW,COL LAYER,ROW,COL
 ----------------------------------------------------------------------
     0.2518        0.1703        0.1637        0.7667E-01    0.9644E-01
  (  3,  9,  9) (  5,  8, 10) (  5, 10,  8) (  3,  8, 10) (  3, 10,  8)
     0.3717E-01    0.2540E-01    0.1530E-01    0.1917E-01    0.7520E-02
  (  2,  7,  7) (  5, 10,  8) (  3,  8, 10) (  3, 10,  8) (  3,  8, 10)
     0.8705E-02    0.3977E-02    0.3805E-02    0.1694E-02    0.2122E-02
  (  2,  7,  7) (  5,  9,  9) (  5, 10,  8) (  3,  8, 10) (  3, 10,  8)
     0.8172E-03    0.5558E-03    0.3407E-03    0.4188E-03    0.1705E-03
  (  2,  7,  7) (  5, 10,  8) (  3,  8, 10) (  4, 10,  8) (  3,  8, 10)
     0.1965E-03    0.8535E-04
  (  3,  8,  8) (  5,  7,  8)


 HEAD/DRAWDOWN PRINTOUT FLAG = 0     TOTAL BUDGET PRINTOUT FLAG = 0
 CELL-BY-CELL FLOW TERM FLAG = 1

 OUTPUT FLAGS FOR ALL LAYERS ARE THE SAME:
   HEAD    DRAWDOWN  HEAD  DRAWDOWN
 PRINTOUT  PRINTOUT  SAVE    SAVE
 ----------------------------------
     0         0       0       0


     0  LAKE CELLS ARE DRY.

 PERIOD     1     TIME STEP    39     TIME STEP LENGTH  3.3986E+01
 PERIOD TIME  9.3260E+02     TOTAL SIMULATION TIME  9.3260E+02


                 HYDROLOGIC BUDGET SUMMARIES FOR SIMULATED LAKES
     (ALL FLUID FLUXES ARE VOLUMES ADDED TO THE LAKE DURING PRESENT TIME STEP)
     ----------------------------------------------------------------------------------------
 LAKE    STAGE       PRECIP         EVAP         RUNOFF
   1  1.383723E+02  2.463979E+06  2.187844E+06  0.000000E+00

            GROUND WATER            SURFACE WATER
 LAKE    INFLOW     OUTFLOW      INFLOW     OUTFLOW
   1  4.1516E+06  0.0000E+00  0.0000E+00  0.0000E+00

         WATER    CONNECTED LAKE   UPDATED     TIME-STEP          STAGE CHANGE
 LAKE     USE         INFLUX        VOLUME    SURFACE AREA   TIME STEP  CUMULATIVE
   1   0.0000E+00   0.0000E+00   2.1858E+08    6.2500E+06   7.0826E-01  2.8372E+01
 --------------------------------------------------------------------------------



            CUMULATIVE HYDROLOGIC BUDGET SUMMARIES FOR SIMULATED LAKES
     (ALL FLUID FLUXES ARE SUMS OF VOLUMES ADDED TO THE LAKE SINCE INITIAL TIME)
     ---------------------------------------------------------------------------
 LAKE       PRECIP       EVAP       RUNOFF
   1     6.7613E+07  6.0036E+07  0.0000E+00

            GROUND WATER            SURFACE WATER
 LAKE    INFLOW     OUTFLOW      INFLOW     OUTFLOW
   1  1.6977E+08  0.0000E+00  0.0000E+00  0.0000E+00

         WATER    CONNECTED LAKE
 LAKE     USE         INFLUX
   1   0.0000E+00   0.0000E+00
 --------------------------------------------------------------------------------

 
 SOLVING FOR HEAD 
 ALL LAKES CONVERGED AFTER   2  ITERATIONS
 ALL LAKES CONVERGED AFTER   2  ITERATIONS
 ALL LAKES CONVERGED AFTER   2  ITERATIONS
 ALL LAKES CONVERGED AFTER   2  ITERATIONS
 ALL LAKES CONVERGED AFTER   2  ITERATIONS
 ALL LAKES CONVERGED AFTER   2  ITERATIONS
 ALL LAKES CONVERGED AFTER   2  ITERATIONS
 ALL LAKES CONVERGED AFTER   2  ITERATIONS
 ALL LAKES CONVERGED AFTER   2  ITERATIONS
 ALL LAKES CONVERGED AFTER   2  ITERATIONS
 ALL LAKES CONVERGED AFTER   2  ITERATIONS
 ALL LAKES CONVERGED AFTER   2  ITERATIONS
 ALL LAKES CONVERGED AFTER   2  ITERATIONS
 ALL LAKES CONVERGED AFTER   2  ITERATIONS
 ALL LAKES CONVERGED AFTER   2  ITERATIONS
 ALL LAKES CONVERGED AFTER   2  ITERATIONS
 ALL LAKES CONVERGED AFTER   2  ITERATIONS
 ALL LAKES CONVERGED AFTER   2  ITERATIONS
 ALL LAKES CONVERGED AFTER   2  ITERATIONS
 ALL LAKES CONVERGED AFTER   2  ITERATIONS
 ALL LAKES CONVERGED AFTER   1  ITERATIONS
 ALL LAKES CONVERGED AFTER   2  ITERATIONS
    22 ITERATIONS FOR TIME STEP  40 IN STRESS PERIOD    1

 MAXIMUM HEAD CHANGE FOR EACH ITERATION:

    HEAD CHANGE   HEAD CHANGE   HEAD CHANGE   HEAD CHANGE   HEAD CHANGE
  LAYER,ROW,COL LAYER,ROW,COL LAYER,ROW,COL LAYER,ROW,COL LAYER,ROW,COL
 ----------------------------------------------------------------------
     0.2378        0.1618        0.1561        0.7376E-01    0.9294E-01
  (  3,  9,  9) (  5,  8, 10) (  5, 10,  8) (  3,  8, 10) (  3, 10,  8)
     0.3612E-01    0.2483E-01    0.1506E-01    0.1891E-01    0.7489E-02
  (  2,  7,  7) (  5, 10,  8) (  3,  8, 10) (  3, 10,  8) (  3,  8, 10)
     0.8675E-02    0.3985E-02    0.3828E-02    0.1724E-02    0.2162E-02
  (  3,  8,  8) (  5,  9,  9) (  5, 10,  8) (  3,  8, 10) (  3, 10,  8)
     0.8459E-03    0.5696E-03    0.3511E-03    0.4380E-03    0.1803E-03
  (  2,  7,  7) (  5, 10,  9) (  3,  8, 10) (  3, 10,  8) (  3,  8, 10)
     0.2061E-03    0.9413E-04
  (  3,  8,  8) (  4, 10, 11)


 HEAD/DRAWDOWN PRINTOUT FLAG = 1     TOTAL BUDGET PRINTOUT FLAG = 1
 CELL-BY-CELL FLOW TERM FLAG = 1

 OUTPUT FLAGS FOR EACH LAYER:
          HEAD    DRAWDOWN  HEAD  DRAWDOWN
 LAYER  PRINTOUT  PRINTOUT  SAVE    SAVE
 -----------------------------------------
    1       0         0       0       0
    2       0         0       0       0
    3       0         0       0       0
    4       0         0       0       0
    5       1         0       0       0


     0  LAKE CELLS ARE DRY.

 PERIOD     1     TIME STEP    40     TIME STEP LENGTH  3.4666E+01
 PERIOD TIME  9.6726E+02     TOTAL SIMULATION TIME  9.6726E+02


                 HYDROLOGIC BUDGET SUMMARIES FOR SIMULATED LAKES
     (ALL FLUID FLUXES ARE VOLUMES ADDED TO THE LAKE DURING PRESENT TIME STEP)
     ----------------------------------------------------------------------------------------
 LAKE    STAGE       PRECIP         EVAP         RUNOFF
   1  1.390482E+02  2.513258E+06  2.231600E+06  0.000000E+00

            GROUND WATER            SURFACE WATER
 LAKE    INFLOW     OUTFLOW      INFLOW     OUTFLOW
   1  3.9443E+06  0.0000E+00  0.0000E+00  0.0000E+00

         WATER    CONNECTED LAKE   UPDATED     TIME-STEP          STAGE CHANGE
 LAKE     USE         INFLUX        VOLUME    SURFACE AREA   TIME STEP  CUMULATIVE
   1   0.0000E+00   0.0000E+00   2.2280E+08    6.2500E+06   6.7596E-01  2.9048E+01
 --------------------------------------------------------------------------------



            CUMULATIVE HYDROLOGIC BUDGET SUMMARIES FOR SIMULATED LAKES
     (ALL FLUID FLUXES ARE SUMS OF VOLUMES ADDED TO THE LAKE SINCE INITIAL TIME)
     ---------------------------------------------------------------------------
 LAKE       PRECIP       EVAP       RUNOFF
   1     7.0126E+07  6.2267E+07  0.0000E+00

            GROUND WATER            SURFACE WATER
 LAKE    INFLOW     OUTFLOW      INFLOW     OUTFLOW
   1  1.7371E+08  0.0000E+00  0.0000E+00  0.0000E+00

         WATER    CONNECTED LAKE
 LAKE     USE         INFLUX
   1   0.0000E+00   0.0000E+00
 --------------------------------------------------------------------------------

1
              HEAD IN LAYER   5 AT END OF TIME STEP  40 IN STRESS PERIOD    1
  ---------------------------------------------------------------------------

          1      2      3      4      5      6      7      8      9     10
 .........................................................................
   1   160.0  158.9  157.3  155.8  154.2  152.7  151.5  150.8  150.0  149.2
   2   160.0  158.5  156.7  154.9  153.3  151.6  150.5  149.7  148.9  148.1
   3   160.0  158.3  156.1  154.1  152.3  150.5  149.3  148.4  147.6  146.9
   4   160.0  158.1  155.7  153.6  151.5  149.5  148.2  147.3  146.5  145.8
   5   160.0  158.1  155.5  153.1  150.8  148.4  146.7  145.8  145.0  144.3
   6   160.0  158.0  155.3  152.7  149.9  146.7  144.1  143.0  142.4  142.0
   7   160.0  157.9  155.2  152.5  149.4  145.1  139.1  138.9  138.8  138.8
   8   160.0  157.9  155.1  152.3  149.1  144.5  138.9  138.7  138.7  138.7
   9   160.0  157.9  155.1  152.3  149.0  144.4  138.9  138.7  138.7  138.7
  10   160.0  157.9  155.1  152.3  149.1  144.5  138.9  138.7  138.7  138.7
  11   160.0  157.9  155.2  152.5  149.4  145.1  139.1  138.9  138.8  138.8
  12   160.0  158.0  155.3  152.7  149.9  146.7  144.1  143.0  142.4  142.0
  13   160.0  158.1  155.5  153.1  150.8  148.4  146.7  145.8  145.0  144.3
  14   160.0  158.1  155.7  153.6  151.5  149.5  148.2  147.3  146.5  145.8
  15   160.0  158.3  156.1  154.1  152.3  150.5  149.3  148.4  147.6  146.9
  16   160.0  158.5  156.7  154.9  153.3  151.6  150.5  149.7  148.9  148.1
  17   160.0  158.9  157.3  155.8  154.2  152.7  151.5  150.8  150.0  149.2
1
              HEAD IN LAYER   5 AT END OF TIME STEP  40 IN STRESS PERIOD    1
  ---------------------------------------------------------------------------

         11     12     13     14     15     16     17
 ....................................................
   1   148.5  147.3  145.8  144.2  142.7  141.1  140.0
   2   147.3  146.2  144.7  143.3  141.9  140.6  140.0
   3   146.1  145.1  143.7  142.4  141.2  140.2  140.0
   4   145.1  144.1  143.0  141.8  140.8  140.0  140.0
   5   143.8  143.1  142.3  141.4  140.5  139.9  140.0
   6   141.8  141.9  141.6  141.0  140.3  139.9  140.0
   7   138.9  140.8  141.2  140.8  140.2  139.8  140.0
   8   138.8  140.5  141.0  140.7  140.2  139.8  140.0
   9   138.8  140.4  140.9  140.7  140.2  139.8  140.0
  10   138.8  140.5  141.0  140.7  140.2  139.8  140.0
  11   138.9  140.8  141.2  140.8  140.2  139.8  140.0
  12   141.8  141.9  141.6  141.0  140.3  139.9  140.0
  13   143.8  143.1  142.3  141.4  140.5  139.9  140.0
  14   145.1  144.1  143.0  141.8  140.8  140.0  140.0
  15   146.1  145.1  143.7  142.4  141.2  140.2  140.0
  16   147.3  146.2  144.7  143.3  141.9  140.6  140.0
  17   148.5  147.3  145.8  144.2  142.7  141.1  140.0
1
  VOLUMETRIC BUDGET FOR ENTIRE MODEL AT END OF TIME STEP 40 IN STRESS PERIOD   1
  ------------------------------------------------------------------------------

     CUMULATIVE VOLUMES      L**3       RATES FOR THIS TIME STEP      L**3/T
     ------------------                 ------------------------

           IN:                                      IN:
           ---                                      ---
             STORAGE =       32205.5820               STORAGE =           0.0000
       CONSTANT HEAD =   606880448.0000         CONSTANT HEAD =      191720.4062
                  ET =           0.0000                    ET =           0.0000
            RECHARGE =  1683034240.0000              RECHARGE =     1740000.0000
     SPECIFIED FLOWS =           0.0000       SPECIFIED FLOWS =           0.0000
       LAKE  SEEPAGE =           0.0000         LAKE  SEEPAGE =           0.0000

            TOTAL IN =  2289946880.0000              TOTAL IN =     1931720.3750

          OUT:                                     OUT:
          ----                                     ----
             STORAGE =   975477952.0000               STORAGE =       75671.5625
       CONSTANT HEAD =     2813713.0000         CONSTANT HEAD =        5767.4873
                  ET =  1137929984.0000                    ET =     1736491.3750
            RECHARGE =           0.0000              RECHARGE =           0.0000
     SPECIFIED FLOWS =           0.0000       SPECIFIED FLOWS =           0.0000
       LAKE  SEEPAGE =   173711632.0000         LAKE  SEEPAGE =      113780.2734

           TOTAL OUT =  2289933312.0000             TOTAL OUT =     1931710.7500

            IN - OUT =       13568.0000              IN - OUT =           9.6250

 PERCENT DISCREPANCY =           0.00     PERCENT DISCREPANCY =           0.00






          TIME SUMMARY AT END OF TIME STEP  40 IN STRESS PERIOD    1
                    SECONDS     MINUTES      HOURS       DAYS        YEARS
                    -----------------------------------------------------------
   TIME STEP LENGTH 2.99511E+06  49919.      831.98      34.666     9.49093E-02
 STRESS PERIOD TIME 8.35714E+07 1.39286E+06  23214.      967.26      2.6482    
         TOTAL TIME 8.35714E+07 1.39286E+06  23214.      967.26      2.6482    
1
 
 SOLVING FOR HEAD 
 ALL LAKES CONVERGED AFTER   2  ITERATIONS
 ALL LAKES CONVERGED AFTER   2  ITERATIONS
 ALL LAKES CONVERGED AFTER   2  ITERATIONS
 ALL LAKES CONVERGED AFTER   2  ITERATIONS
 ALL LAKES CONVERGED AFTER   2  ITERATIONS
 ALL LAKES CONVERGED AFTER   2  ITERATIONS
 ALL LAKES CONVERGED AFTER   2  ITERATIONS
 ALL LAKES CONVERGED AFTER   2  ITERATIONS
 ALL LAKES CONVERGED AFTER   2  ITERATIONS
 ALL LAKES CONVERGED AFTER   2  ITERATIONS
 ALL LAKES CONVERGED AFTER   2  ITERATIONS
 ALL LAKES CONVERGED AFTER   2  ITERATIONS
 ALL LAKES CONVERGED AFTER   2  ITERATIONS
 ALL LAKES CONVERGED AFTER   2  ITERATIONS
 ALL LAKES CONVERGED AFTER   2  ITERATIONS
 ALL LAKES CONVERGED AFTER   2  ITERATIONS
 ALL LAKES CONVERGED AFTER   2  ITERATIONS
 ALL LAKES CONVERGED AFTER   2  ITERATIONS
 ALL LAKES CONVERGED AFTER   2  ITERATIONS
 ALL LAKES CONVERGED AFTER   2  ITERATIONS
 ALL LAKES CONVERGED AFTER   1  ITERATIONS
 ALL LAKES CONVERGED AFTER   2  ITERATIONS
    22 ITERATIONS FOR TIME STEP  41 IN STRESS PERIOD    1

 MAXIMUM HEAD CHANGE FOR EACH ITERATION:

    HEAD CHANGE   HEAD CHANGE   HEAD CHANGE   HEAD CHANGE   HEAD CHANGE
  LAYER,ROW,COL LAYER,ROW,COL LAYER,ROW,COL LAYER,ROW,COL LAYER,ROW,COL
 ----------------------------------------------------------------------
     0.2241        0.1534        0.1486        0.7081E-01    0.8938E-01
  (  3,  9,  9) (  5,  8, 10) (  5, 10,  8) (  3,  8, 10) (  3, 10,  8)
     0.3502E-01    0.2422E-01    0.1479E-01    0.1861E-01    0.7429E-02
  (  2,  7,  7) (  5, 10,  8) (  3,  8, 10) (  3, 10,  8) (  3,  8, 10)
     0.8628E-02    0.3982E-02    0.3847E-02    0.1744E-02    0.2192E-02
  (  3,  8,  8) (  5,  9,  9) (  5, 10,  8) (  3,  8, 10) (  3, 10,  8)
     0.8561E-03    0.5901E-03    0.3639E-03    0.4577E-03    0.1866E-03
  (  2,  7,  7) (  5, 10,  8) (  3,  9, 11) (  3, 10,  8) (  2,  7, 10)
     0.2143E-03    0.9981E-04
  (  2,  7,  7) (  5,  9,  9)


 HEAD/DRAWDOWN PRINTOUT FLAG = 0     TOTAL BUDGET PRINTOUT FLAG = 0
 CELL-BY-CELL FLOW TERM FLAG = 1

 OUTPUT FLAGS FOR ALL LAYERS ARE THE SAME:
   HEAD    DRAWDOWN  HEAD  DRAWDOWN
 PRINTOUT  PRINTOUT  SAVE    SAVE
 ----------------------------------
     0         0       0       0


     0  LAKE CELLS ARE DRY.

 PERIOD     1     TIME STEP    41     TIME STEP LENGTH  3.5359E+01
 PERIOD TIME  1.0026E+03     TOTAL SIMULATION TIME  1.0026E+03


                 HYDROLOGIC BUDGET SUMMARIES FOR SIMULATED LAKES
     (ALL FLUID FLUXES ARE VOLUMES ADDED TO THE LAKE DURING PRESENT TIME STEP)
     ----------------------------------------------------------------------------------------
 LAKE    STAGE       PRECIP         EVAP         RUNOFF
   1  1.396921E+02  2.563524E+06  2.276232E+06  0.000000E+00

            GROUND WATER            SURFACE WATER
 LAKE    INFLOW     OUTFLOW      INFLOW     OUTFLOW
   1  3.7382E+06  0.0000E+00  0.0000E+00  0.0000E+00

         WATER    CONNECTED LAKE   UPDATED     TIME-STEP          STAGE CHANGE
 LAKE     USE         INFLUX        VOLUME    SURFACE AREA   TIME STEP  CUMULATIVE
   1   0.0000E+00   0.0000E+00   2.2683E+08    6.2500E+06   6.4385E-01  2.9692E+01
 --------------------------------------------------------------------------------



            CUMULATIVE HYDROLOGIC BUDGET SUMMARIES FOR SIMULATED LAKES
     (ALL FLUID FLUXES ARE SUMS OF VOLUMES ADDED TO THE LAKE SINCE INITIAL TIME)
     ---------------------------------------------------------------------------
 LAKE       PRECIP       EVAP       RUNOFF
   1     7.2690E+07  6.4544E+07  0.0000E+00

            GROUND WATER            SURFACE WATER
 LAKE    INFLOW     OUTFLOW      INFLOW     OUTFLOW
   1  1.7745E+08  0.0000E+00  0.0000E+00  0.0000E+00

         WATER    CONNECTED LAKE
 LAKE     USE         INFLUX
   1   0.0000E+00   0.0000E+00
 --------------------------------------------------------------------------------

 
 SOLVING FOR HEAD 
 ALL LAKES CONVERGED AFTER   2  ITERATIONS
 ALL LAKES CONVERGED AFTER   2  ITERATIONS
 ALL LAKES CONVERGED AFTER   2  ITERATIONS
 ALL LAKES CONVERGED AFTER   2  ITERATIONS
 ALL LAKES CONVERGED AFTER   2  ITERATIONS
 ALL LAKES CONVERGED AFTER   2  ITERATIONS
 ALL LAKES CONVERGED AFTER   2  ITERATIONS
 ALL LAKES CONVERGED AFTER   2  ITERATIONS
 ALL LAKES CONVERGED AFTER   2  ITERATIONS
 ALL LAKES CONVERGED AFTER   2  ITERATIONS
 ALL LAKES CONVERGED AFTER   2  ITERATIONS
 ALL LAKES CONVERGED AFTER   2  ITERATIONS
 ALL LAKES CONVERGED AFTER   2  ITERATIONS
 ALL LAKES CONVERGED AFTER   2  ITERATIONS
 ALL LAKES CONVERGED AFTER   2  ITERATIONS
 ALL LAKES CONVERGED AFTER   2  ITERATIONS
 ALL LAKES CONVERGED AFTER   2  ITERATIONS
 ALL LAKES CONVERGED AFTER   2  ITERATIONS
 ALL LAKES CONVERGED AFTER   2  ITERATIONS
 ALL LAKES CONVERGED AFTER   2  ITERATIONS
 ALL LAKES CONVERGED AFTER   1  ITERATIONS
 ALL LAKES CONVERGED AFTER   2  ITERATIONS
 ALL LAKES CONVERGED AFTER   2  ITERATIONS
 ALL LAKES CONVERGED AFTER   1  ITERATIONS
    24 ITERATIONS FOR TIME STEP  42 IN STRESS PERIOD    1

 MAXIMUM HEAD CHANGE FOR EACH ITERATION:

    HEAD CHANGE   HEAD CHANGE   HEAD CHANGE   HEAD CHANGE   HEAD CHANGE
  LAYER,ROW,COL LAYER,ROW,COL LAYER,ROW,COL LAYER,ROW,COL LAYER,ROW,COL
 ----------------------------------------------------------------------
     0.2107        0.1451        0.1412        0.6784E-01    0.8576E-01
  (  3,  9,  9) (  5,  8, 10) (  5, 10,  8) (  3,  8, 10) (  3, 10,  8)
     0.3387E-01    0.2355E-01    0.1449E-01    0.1827E-01    0.7359E-02
  (  2,  7,  7) (  5, 10,  8) (  3,  8, 10) (  3, 10,  8) (  3,  8, 10)
     0.8544E-02    0.3978E-02    0.3854E-02    0.1755E-02    0.2222E-02
  (  3,  8,  8) (  5,  9,  9) (  5, 10,  8) (  3,  8, 10) (  3, 10,  8)
     0.8744E-03    0.6108E-03    0.3739E-03    0.4677E-03    0.1905E-03
  (  2,  7,  7) (  5, 10,  8) (  3,  9, 11) (  5, 10,  8) (  3,  8, 10)
     0.2247E-03    0.1004E-03    0.1033E-03    0.4910E-04
  (  2,  7,  7) (  5,  9,  9) (  5, 10,  8) (  2,  9, 11)


 HEAD/DRAWDOWN PRINTOUT FLAG = 0     TOTAL BUDGET PRINTOUT FLAG = 0
 CELL-BY-CELL FLOW TERM FLAG = 1

 OUTPUT FLAGS FOR ALL LAYERS ARE THE SAME:
   HEAD    DRAWDOWN  HEAD  DRAWDOWN
 PRINTOUT  PRINTOUT  SAVE    SAVE
 ----------------------------------
     0         0       0       0


     0  LAKE CELLS ARE DRY.

 PERIOD     1     TIME STEP    42     TIME STEP LENGTH  3.6066E+01
 PERIOD TIME  1.0387E+03     TOTAL SIMULATION TIME  1.0387E+03


                 HYDROLOGIC BUDGET SUMMARIES FOR SIMULATED LAKES
     (ALL FLUID FLUXES ARE VOLUMES ADDED TO THE LAKE DURING PRESENT TIME STEP)
     ----------------------------------------------------------------------------------------
 LAKE    STAGE       PRECIP         EVAP         RUNOFF
   1  1.403043E+02  2.614794E+06  2.321757E+06  0.000000E+00

            GROUND WATER            SURFACE WATER
 LAKE    INFLOW     OUTFLOW      INFLOW     OUTFLOW
   1  3.5337E+06  0.0000E+00  0.0000E+00  0.0000E+00

         WATER    CONNECTED LAKE   UPDATED     TIME-STEP          STAGE CHANGE
 LAKE     USE         INFLUX        VOLUME    SURFACE AREA   TIME STEP  CUMULATIVE
   1   0.0000E+00   0.0000E+00   2.3065E+08    6.2500E+06   6.1218E-01  3.0304E+01
 --------------------------------------------------------------------------------



            CUMULATIVE HYDROLOGIC BUDGET SUMMARIES FOR SIMULATED LAKES
     (ALL FLUID FLUXES ARE SUMS OF VOLUMES ADDED TO THE LAKE SINCE INITIAL TIME)
     ---------------------------------------------------------------------------
 LAKE       PRECIP       EVAP       RUNOFF
   1     7.5305E+07  6.6865E+07  0.0000E+00

            GROUND WATER            SURFACE WATER
 LAKE    INFLOW     OUTFLOW      INFLOW     OUTFLOW
   1  1.8098E+08  0.0000E+00  0.0000E+00  0.0000E+00

         WATER    CONNECTED LAKE
 LAKE     USE         INFLUX
   1   0.0000E+00   0.0000E+00
 --------------------------------------------------------------------------------

 
 SOLVING FOR HEAD 
 ALL LAKES CONVERGED AFTER   2  ITERATIONS
 ALL LAKES CONVERGED AFTER   2  ITERATIONS
 ALL LAKES CONVERGED AFTER   2  ITERATIONS
 ALL LAKES CONVERGED AFTER   2  ITERATIONS
 ALL LAKES CONVERGED AFTER   2  ITERATIONS
 ALL LAKES CONVERGED AFTER   2  ITERATIONS
 ALL LAKES CONVERGED AFTER   2  ITERATIONS
 ALL LAKES CONVERGED AFTER   2  ITERATIONS
 ALL LAKES CONVERGED AFTER   2  ITERATIONS
 ALL LAKES CONVERGED AFTER   2  ITERATIONS
 ALL LAKES CONVERGED AFTER   2  ITERATIONS
 ALL LAKES CONVERGED AFTER   2  ITERATIONS
 ALL LAKES CONVERGED AFTER   2  ITERATIONS
 ALL LAKES CONVERGED AFTER   2  ITERATIONS
 ALL LAKES CONVERGED AFTER   2  ITERATIONS
 ALL LAKES CONVERGED AFTER   2  ITERATIONS
 ALL LAKES CONVERGED AFTER   2  ITERATIONS
 ALL LAKES CONVERGED AFTER   2  ITERATIONS
 ALL LAKES CONVERGED AFTER   2  ITERATIONS
 ALL LAKES CONVERGED AFTER   2  ITERATIONS
 ALL LAKES CONVERGED AFTER   1  ITERATIONS
 ALL LAKES CONVERGED AFTER   2  ITERATIONS
 ALL LAKES CONVERGED AFTER   2  ITERATIONS
 ALL LAKES CONVERGED AFTER   1  ITERATIONS
    24 ITERATIONS FOR TIME STEP  43 IN STRESS PERIOD    1

 MAXIMUM HEAD CHANGE FOR EACH ITERATION:

    HEAD CHANGE   HEAD CHANGE   HEAD CHANGE   HEAD CHANGE   HEAD CHANGE
  LAYER,ROW,COL LAYER,ROW,COL LAYER,ROW,COL LAYER,ROW,COL LAYER,ROW,COL
 ----------------------------------------------------------------------
     0.1977        0.1370        0.1338        0.6484E-01    0.8210E-01
  (  3,  9,  9) (  5,  8, 10) (  5, 10,  8) (  3,  8, 10) (  3, 10,  8)
     0.3268E-01    0.2287E-01    0.1415E-01    0.1788E-01    0.7259E-02
  (  2,  7,  7) (  5, 10,  8) (  3,  8, 10) (  3, 10,  8) (  3,  8, 10)
     0.8450E-02    0.3962E-02    0.3856E-02    0.1775E-02    0.2233E-02
  (  3,  8,  8) (  5,  9,  9) (  5, 10,  8) (  3,  8, 10) (  3, 10,  8)
     0.8861E-03    0.6229E-03    0.3910E-03    0.4868E-03    0.1978E-03
  (  2,  7,  7) (  5, 10,  8) (  3,  8, 10) (  4, 10,  8) (  2,  8, 11)
     0.2337E-03    0.1109E-03    0.1076E-03    0.4927E-04
  (  2,  7,  7) (  5,  9,  9) (  5, 10,  8) (  2,  9, 11)


 HEAD/DRAWDOWN PRINTOUT FLAG = 0     TOTAL BUDGET PRINTOUT FLAG = 0
 CELL-BY-CELL FLOW TERM FLAG = 1

 OUTPUT FLAGS FOR ALL LAYERS ARE THE SAME:
   HEAD    DRAWDOWN  HEAD  DRAWDOWN
 PRINTOUT  PRINTOUT  SAVE    SAVE
 ----------------------------------
     0         0       0       0


     0  LAKE CELLS ARE DRY.

 PERIOD     1     TIME STEP    43     TIME STEP LENGTH  3.6787E+01
 PERIOD TIME  1.0755E+03     TOTAL SIMULATION TIME  1.0755E+03


                 HYDROLOGIC BUDGET SUMMARIES FOR SIMULATED LAKES
     (ALL FLUID FLUXES ARE VOLUMES ADDED TO THE LAKE DURING PRESENT TIME STEP)
     ----------------------------------------------------------------------------------------
 LAKE    STAGE       PRECIP         EVAP         RUNOFF
   1  1.408852E+02  2.667090E+06  2.368192E+06  0.000000E+00

            GROUND WATER            SURFACE WATER
 LAKE    INFLOW     OUTFLOW      INFLOW     OUTFLOW
   1  3.3322E+06  0.0000E+00  0.0000E+00  0.0000E+00

         WATER    CONNECTED LAKE   UPDATED     TIME-STEP          STAGE CHANGE
 LAKE     USE         INFLUX        VOLUME    SURFACE AREA   TIME STEP  CUMULATIVE
   1   0.0000E+00   0.0000E+00   2.3428E+08    6.2500E+06   5.8094E-01  3.0885E+01
 --------------------------------------------------------------------------------



            CUMULATIVE HYDROLOGIC BUDGET SUMMARIES FOR SIMULATED LAKES
     (ALL FLUID FLUXES ARE SUMS OF VOLUMES ADDED TO THE LAKE SINCE INITIAL TIME)
     ---------------------------------------------------------------------------
 LAKE       PRECIP       EVAP       RUNOFF
   1     7.7972E+07  6.9234E+07  0.0000E+00

            GROUND WATER            SURFACE WATER
 LAKE    INFLOW     OUTFLOW      INFLOW     OUTFLOW
   1  1.8432E+08  0.0000E+00  0.0000E+00  0.0000E+00

         WATER    CONNECTED LAKE
 LAKE     USE         INFLUX
   1   0.0000E+00   0.0000E+00
 --------------------------------------------------------------------------------

 
 SOLVING FOR HEAD 
 ALL LAKES CONVERGED AFTER   2  ITERATIONS
 ALL LAKES CONVERGED AFTER   2  ITERATIONS
 ALL LAKES CONVERGED AFTER   2  ITERATIONS
 ALL LAKES CONVERGED AFTER   2  ITERATIONS
 ALL LAKES CONVERGED AFTER   2  ITERATIONS
 ALL LAKES CONVERGED AFTER   2  ITERATIONS
 ALL LAKES CONVERGED AFTER   2  ITERATIONS
 ALL LAKES CONVERGED AFTER   2  ITERATIONS
 ALL LAKES CONVERGED AFTER   2  ITERATIONS
 ALL LAKES CONVERGED AFTER   2  ITERATIONS
 ALL LAKES CONVERGED AFTER   2  ITERATIONS
 ALL LAKES CONVERGED AFTER   2  ITERATIONS
 ALL LAKES CONVERGED AFTER   2  ITERATIONS
 ALL LAKES CONVERGED AFTER   2  ITERATIONS
 ALL LAKES CONVERGED AFTER   2  ITERATIONS
 ALL LAKES CONVERGED AFTER   2  ITERATIONS
 ALL LAKES CONVERGED AFTER   2  ITERATIONS
 ALL LAKES CONVERGED AFTER   2  ITERATIONS
 ALL LAKES CONVERGED AFTER   2  ITERATIONS
 ALL LAKES CONVERGED AFTER   2  ITERATIONS
 ALL LAKES CONVERGED AFTER   2  ITERATIONS
 ALL LAKES CONVERGED AFTER   2  ITERATIONS
 ALL LAKES CONVERGED AFTER   2  ITERATIONS
 ALL LAKES CONVERGED AFTER   2  ITERATIONS
    24 ITERATIONS FOR TIME STEP  44 IN STRESS PERIOD    1

 MAXIMUM HEAD CHANGE FOR EACH ITERATION:

    HEAD CHANGE   HEAD CHANGE   HEAD CHANGE   HEAD CHANGE   HEAD CHANGE
  LAYER,ROW,COL LAYER,ROW,COL LAYER,ROW,COL LAYER,ROW,COL LAYER,ROW,COL
 ----------------------------------------------------------------------
     0.1852        0.1291        0.1266        0.6186E-01    0.7846E-01
  (  3,  9,  9) (  5,  8, 10) (  5, 10,  8) (  3,  8, 10) (  3, 10,  8)
     0.3148E-01    0.2215E-01    0.1380E-01    0.1747E-01    0.7148E-02
  (  2,  7,  7) (  5, 10,  8) (  3,  8, 10) (  3, 10,  8) (  3,  8, 10)
     0.8337E-02    0.3926E-02    0.3832E-02    0.1785E-02    0.2261E-02
  (  3,  8,  8) (  5,  9,  9) (  5, 10,  8) (  3,  8, 10) (  3, 10,  8)
     0.9043E-03    0.6347E-03    0.3921E-03    0.4954E-03    0.2077E-03
  (  2,  7,  7) (  5, 10,  8) (  3,  8, 10) (  3, 10,  8) (  2,  8, 11)
     0.2439E-03    0.1162E-03    0.1119E-03    0.5862E-04
  (  2,  7,  7) (  5,  9, 10) (  5, 10,  8) (  2,  7, 11)


 HEAD/DRAWDOWN PRINTOUT FLAG = 0     TOTAL BUDGET PRINTOUT FLAG = 0
 CELL-BY-CELL FLOW TERM FLAG = 1

 OUTPUT FLAGS FOR ALL LAYERS ARE THE SAME:
   HEAD    DRAWDOWN  HEAD  DRAWDOWN
 PRINTOUT  PRINTOUT  SAVE    SAVE
 ----------------------------------
     0         0       0       0


     0  LAKE CELLS ARE DRY.

 PERIOD     1     TIME STEP    44     TIME STEP LENGTH  3.7523E+01
 PERIOD TIME  1.1130E+03     TOTAL SIMULATION TIME  1.1130E+03


                 HYDROLOGIC BUDGET SUMMARIES FOR SIMULATED LAKES
     (ALL FLUID FLUXES ARE VOLUMES ADDED TO THE LAKE DURING PRESENT TIME STEP)
     ----------------------------------------------------------------------------------------
 LAKE    STAGE       PRECIP         EVAP         RUNOFF
   1  1.414353E+02  2.720432E+06  2.415556E+06  0.000000E+00

            GROUND WATER            SURFACE WATER
 LAKE    INFLOW     OUTFLOW      INFLOW     OUTFLOW
   1  3.1340E+06  0.0000E+00  0.0000E+00  0.0000E+00

         WATER    CONNECTED LAKE   UPDATED     TIME-STEP          STAGE CHANGE
 LAKE     USE         INFLUX        VOLUME    SURFACE AREA   TIME STEP  CUMULATIVE
   1   0.0000E+00   0.0000E+00   2.3772E+08    6.2500E+06   5.5016E-01  3.1435E+01
 --------------------------------------------------------------------------------



            CUMULATIVE HYDROLOGIC BUDGET SUMMARIES FOR SIMULATED LAKES
     (ALL FLUID FLUXES ARE SUMS OF VOLUMES ADDED TO THE LAKE SINCE INITIAL TIME)
     ---------------------------------------------------------------------------
 LAKE       PRECIP       EVAP       RUNOFF
   1     8.0692E+07  7.1649E+07  0.0000E+00

            GROUND WATER            SURFACE WATER
 LAKE    INFLOW     OUTFLOW      INFLOW     OUTFLOW
   1  1.8745E+08  0.0000E+00  0.0000E+00  0.0000E+00

         WATER    CONNECTED LAKE
 LAKE     USE         INFLUX
   1   0.0000E+00   0.0000E+00
 --------------------------------------------------------------------------------

 
 SOLVING FOR HEAD 
 ALL LAKES CONVERGED AFTER   2  ITERATIONS
 ALL LAKES CONVERGED AFTER   2  ITERATIONS
 ALL LAKES CONVERGED AFTER   2  ITERATIONS
 ALL LAKES CONVERGED AFTER   2  ITERATIONS
 ALL LAKES CONVERGED AFTER   2  ITERATIONS
 ALL LAKES CONVERGED AFTER   2  ITERATIONS
 ALL LAKES CONVERGED AFTER   2  ITERATIONS
 ALL LAKES CONVERGED AFTER   2  ITERATIONS
 ALL LAKES CONVERGED AFTER   2  ITERATIONS
 ALL LAKES CONVERGED AFTER   2  ITERATIONS
 ALL LAKES CONVERGED AFTER   2  ITERATIONS
 ALL LAKES CONVERGED AFTER   2  ITERATIONS
 ALL LAKES CONVERGED AFTER   2  ITERATIONS
 ALL LAKES CONVERGED AFTER   2  ITERATIONS
 ALL LAKES CONVERGED AFTER   2  ITERATIONS
 ALL LAKES CONVERGED AFTER   2  ITERATIONS
 ALL LAKES CONVERGED AFTER   2  ITERATIONS
 ALL LAKES CONVERGED AFTER   2  ITERATIONS
 ALL LAKES CONVERGED AFTER   2  ITERATIONS
 ALL LAKES CONVERGED AFTER   2  ITERATIONS
 ALL LAKES CONVERGED AFTER   2  ITERATIONS
 ALL LAKES CONVERGED AFTER   2  ITERATIONS
 ALL LAKES CONVERGED AFTER   2  ITERATIONS
 ALL LAKES CONVERGED AFTER   2  ITERATIONS
    24 ITERATIONS FOR TIME STEP  45 IN STRESS PERIOD    1

 MAXIMUM HEAD CHANGE FOR EACH ITERATION:

    HEAD CHANGE   HEAD CHANGE   HEAD CHANGE   HEAD CHANGE   HEAD CHANGE
  LAYER,ROW,COL LAYER,ROW,COL LAYER,ROW,COL LAYER,ROW,COL LAYER,ROW,COL
 ----------------------------------------------------------------------
     0.1731        0.1213        0.1195        0.5887E-01    0.7478E-01
  (  3,  9,  9) (  5,  8, 10) (  5, 10,  8) (  3,  8, 10) (  3, 10,  8)
     0.3023E-01    0.2139E-01    0.1342E-01    0.1702E-01    0.7027E-02
  (  2,  7,  7) (  5, 10,  8) (  3,  8, 10) (  3, 10,  8) (  3,  8, 10)
     0.8196E-02    0.3888E-02    0.3815E-02    0.1785E-02    0.2262E-02
  (  3,  8,  8) (  5,  9,  9) (  5, 10,  8) (  3,  8, 10) (  3, 10,  8)
     0.9138E-03    0.6456E-03    0.4043E-03    0.5132E-03    0.2108E-03
  (  2,  7,  7) (  5, 10,  8) (  3,  9, 11) (  3, 10,  8) (  3,  8, 10)
     0.2437E-03    0.1247E-03    0.1130E-03    0.6024E-04
  (  3,  8,  8) (  4, 10, 11) (  5, 10,  8) (  3,  8, 10)


 HEAD/DRAWDOWN PRINTOUT FLAG = 0     TOTAL BUDGET PRINTOUT FLAG = 0
 CELL-BY-CELL FLOW TERM FLAG = 1

 OUTPUT FLAGS FOR ALL LAYERS ARE THE SAME:
   HEAD    DRAWDOWN  HEAD  DRAWDOWN
 PRINTOUT  PRINTOUT  SAVE    SAVE
 ----------------------------------
     0         0       0       0


     0  LAKE CELLS ARE DRY.

 PERIOD     1     TIME STEP    45     TIME STEP LENGTH  3.8274E+01
 PERIOD TIME  1.1513E+03     TOTAL SIMULATION TIME  1.1513E+03


                 HYDROLOGIC BUDGET SUMMARIES FOR SIMULATED LAKES
     (ALL FLUID FLUXES ARE VOLUMES ADDED TO THE LAKE DURING PRESENT TIME STEP)
     ----------------------------------------------------------------------------------------
 LAKE    STAGE       PRECIP         EVAP         RUNOFF
   1  1.419554E+02  2.774840E+06  2.463867E+06  0.000000E+00

            GROUND WATER            SURFACE WATER
 LAKE    INFLOW     OUTFLOW      INFLOW     OUTFLOW
   1  2.9396E+06  0.0000E+00  0.0000E+00  0.0000E+00

         WATER    CONNECTED LAKE   UPDATED     TIME-STEP          STAGE CHANGE
 LAKE     USE         INFLUX        VOLUME    SURFACE AREA   TIME STEP  CUMULATIVE
   1   0.0000E+00   0.0000E+00   2.4097E+08    6.2500E+06   5.2004E-01  3.1955E+01
 --------------------------------------------------------------------------------



            CUMULATIVE HYDROLOGIC BUDGET SUMMARIES FOR SIMULATED LAKES
     (ALL FLUID FLUXES ARE SUMS OF VOLUMES ADDED TO THE LAKE SINCE INITIAL TIME)
     ---------------------------------------------------------------------------
 LAKE       PRECIP       EVAP       RUNOFF
   1     8.3467E+07  7.4113E+07  0.0000E+00

            GROUND WATER            SURFACE WATER
 LAKE    INFLOW     OUTFLOW      INFLOW     OUTFLOW
   1  1.9039E+08  0.0000E+00  0.0000E+00  0.0000E+00

         WATER    CONNECTED LAKE
 LAKE     USE         INFLUX
   1   0.0000E+00   0.0000E+00
 --------------------------------------------------------------------------------

 
 SOLVING FOR HEAD 
 ALL LAKES CONVERGED AFTER   2  ITERATIONS
 ALL LAKES CONVERGED AFTER   2  ITERATIONS
 ALL LAKES CONVERGED AFTER   2  ITERATIONS
 ALL LAKES CONVERGED AFTER   2  ITERATIONS
 ALL LAKES CONVERGED AFTER   2  ITERATIONS
 ALL LAKES CONVERGED AFTER   2  ITERATIONS
 ALL LAKES CONVERGED AFTER   2  ITERATIONS
 ALL LAKES CONVERGED AFTER   2  ITERATIONS
 ALL LAKES CONVERGED AFTER   2  ITERATIONS
 ALL LAKES CONVERGED AFTER   2  ITERATIONS
 ALL LAKES CONVERGED AFTER   2  ITERATIONS
 ALL LAKES CONVERGED AFTER   2  ITERATIONS
 ALL LAKES CONVERGED AFTER   2  ITERATIONS
 ALL LAKES CONVERGED AFTER   2  ITERATIONS
 ALL LAKES CONVERGED AFTER   2  ITERATIONS
 ALL LAKES CONVERGED AFTER   2  ITERATIONS
 ALL LAKES CONVERGED AFTER   2  ITERATIONS
 ALL LAKES CONVERGED AFTER   2  ITERATIONS
 ALL LAKES CONVERGED AFTER   2  ITERATIONS
 ALL LAKES CONVERGED AFTER   2  ITERATIONS
 ALL LAKES CONVERGED AFTER   2  ITERATIONS
 ALL LAKES CONVERGED AFTER   2  ITERATIONS
 ALL LAKES CONVERGED AFTER   2  ITERATIONS
 ALL LAKES CONVERGED AFTER   2  ITERATIONS
    24 ITERATIONS FOR TIME STEP  46 IN STRESS PERIOD    1

 MAXIMUM HEAD CHANGE FOR EACH ITERATION:

    HEAD CHANGE   HEAD CHANGE   HEAD CHANGE   HEAD CHANGE   HEAD CHANGE
  LAYER,ROW,COL LAYER,ROW,COL LAYER,ROW,COL LAYER,ROW,COL LAYER,ROW,COL
 ----------------------------------------------------------------------
     0.1615        0.1138        0.1126        0.5590E-01    0.7113E-01
  (  3,  9,  9) (  5,  8, 10) (  5, 10,  8) (  3,  8, 10) (  3, 10,  8)
     0.2897E-01    0.2061E-01    0.1302E-01    0.1655E-01    0.6877E-02
  (  2,  7,  7) (  5, 10,  8) (  3,  8, 10) (  3, 10,  8) (  3,  8, 10)
     0.8036E-02    0.3840E-02    0.3784E-02    0.1785E-02    0.2262E-02
  (  3,  8,  8) (  5,  9,  9) (  5, 10,  8) (  3,  8, 10) (  3, 10,  8)
     0.9238E-03    0.6563E-03    0.4124E-03    0.5239E-03    0.2272E-03
  (  2,  7,  7) (  5, 10,  8) (  3,  8, 10) (  3, 10,  8) (  2,  8, 11)
     0.2535E-03    0.1224E-03    0.1226E-03    0.5876E-04
  (  2,  7,  7) (  5,  9,  9) (  5, 10,  8) (  2,  7, 10)


 HEAD/DRAWDOWN PRINTOUT FLAG = 0     TOTAL BUDGET PRINTOUT FLAG = 0
 CELL-BY-CELL FLOW TERM FLAG = 1

 OUTPUT FLAGS FOR ALL LAYERS ARE THE SAME:
   HEAD    DRAWDOWN  HEAD  DRAWDOWN
 PRINTOUT  PRINTOUT  SAVE    SAVE
 ----------------------------------
     0         0       0       0


     0  LAKE CELLS ARE DRY.

 PERIOD     1     TIME STEP    46     TIME STEP LENGTH  3.9039E+01
 PERIOD TIME  1.1903E+03     TOTAL SIMULATION TIME  1.1903E+03


                 HYDROLOGIC BUDGET SUMMARIES FOR SIMULATED LAKES
     (ALL FLUID FLUXES ARE VOLUMES ADDED TO THE LAKE DURING PRESENT TIME STEP)
     ----------------------------------------------------------------------------------------
 LAKE    STAGE       PRECIP         EVAP         RUNOFF
   1  1.424460E+02  2.830337E+06  2.513144E+06  0.000000E+00

            GROUND WATER            SURFACE WATER
 LAKE    INFLOW     OUTFLOW      INFLOW     OUTFLOW
   1  2.7493E+06  0.0000E+00  0.0000E+00  0.0000E+00

         WATER    CONNECTED LAKE   UPDATED     TIME-STEP          STAGE CHANGE
 LAKE     USE         INFLUX        VOLUME    SURFACE AREA   TIME STEP  CUMULATIVE
   1   0.0000E+00   0.0000E+00   2.4404E+08    6.2500E+06   4.9064E-01  3.2446E+01
 --------------------------------------------------------------------------------



            CUMULATIVE HYDROLOGIC BUDGET SUMMARIES FOR SIMULATED LAKES
     (ALL FLUID FLUXES ARE SUMS OF VOLUMES ADDED TO THE LAKE SINCE INITIAL TIME)
     ---------------------------------------------------------------------------
 LAKE       PRECIP       EVAP       RUNOFF
   1     8.6297E+07  7.6626E+07  0.0000E+00

            GROUND WATER            SURFACE WATER
 LAKE    INFLOW     OUTFLOW      INFLOW     OUTFLOW
   1  1.9314E+08  0.0000E+00  0.0000E+00  0.0000E+00

         WATER    CONNECTED LAKE
 LAKE     USE         INFLUX
   1   0.0000E+00   0.0000E+00
 --------------------------------------------------------------------------------

 
 SOLVING FOR HEAD 
 ALL LAKES CONVERGED AFTER   2  ITERATIONS
 ALL LAKES CONVERGED AFTER   2  ITERATIONS
 ALL LAKES CONVERGED AFTER   2  ITERATIONS
 ALL LAKES CONVERGED AFTER   2  ITERATIONS
 ALL LAKES CONVERGED AFTER   2  ITERATIONS
 ALL LAKES CONVERGED AFTER   2  ITERATIONS
 ALL LAKES CONVERGED AFTER   2  ITERATIONS
 ALL LAKES CONVERGED AFTER   2  ITERATIONS
 ALL LAKES CONVERGED AFTER   2  ITERATIONS
 ALL LAKES CONVERGED AFTER   2  ITERATIONS
 ALL LAKES CONVERGED AFTER   2  ITERATIONS
 ALL LAKES CONVERGED AFTER   2  ITERATIONS
 ALL LAKES CONVERGED AFTER   2  ITERATIONS
 ALL LAKES CONVERGED AFTER   2  ITERATIONS
 ALL LAKES CONVERGED AFTER   2  ITERATIONS
 ALL LAKES CONVERGED AFTER   2  ITERATIONS
 ALL LAKES CONVERGED AFTER   2  ITERATIONS
 ALL LAKES CONVERGED AFTER   2  ITERATIONS
 ALL LAKES CONVERGED AFTER   2  ITERATIONS
 ALL LAKES CONVERGED AFTER   2  ITERATIONS
 ALL LAKES CONVERGED AFTER   2  ITERATIONS
 ALL LAKES CONVERGED AFTER   2  ITERATIONS
 ALL LAKES CONVERGED AFTER   2  ITERATIONS
 ALL LAKES CONVERGED AFTER   2  ITERATIONS
    24 ITERATIONS FOR TIME STEP  47 IN STRESS PERIOD    1

 MAXIMUM HEAD CHANGE FOR EACH ITERATION:

    HEAD CHANGE   HEAD CHANGE   HEAD CHANGE   HEAD CHANGE   HEAD CHANGE
  LAYER,ROW,COL LAYER,ROW,COL LAYER,ROW,COL LAYER,ROW,COL LAYER,ROW,COL
 ----------------------------------------------------------------------
     0.1504        0.1066        0.1058        0.5298E-01    0.6752E-01
  (  3,  9,  9) (  5,  8, 10) (  5, 10,  8) (  3,  8, 10) (  3, 10,  8)
     0.2772E-01    0.1982E-01    0.1261E-01    0.1605E-01    0.6726E-02
  (  2,  7,  7) (  5, 10,  8) (  3,  8, 10) (  3, 10,  8) (  3,  8, 10)
     0.7868E-02    0.3791E-02    0.3732E-02    0.1775E-02    0.2262E-02
  (  3,  8,  8) (  5,  9,  9) (  5, 10,  8) (  3,  8, 10) (  3, 10,  8)
     0.9239E-03    0.6657E-03    0.4240E-03    0.5336E-03    0.2274E-03
  (  2,  7,  7) (  5, 10,  8) (  2,  9, 11) (  4, 10,  8) (  2,  8, 11)
     0.2625E-03    0.1229E-03    0.1238E-03    0.6046E-04
  (  2,  7,  7) (  5,  9,  9) (  5, 10,  8) (  3,  8, 10)


 HEAD/DRAWDOWN PRINTOUT FLAG = 0     TOTAL BUDGET PRINTOUT FLAG = 0
 CELL-BY-CELL FLOW TERM FLAG = 1

 OUTPUT FLAGS FOR ALL LAYERS ARE THE SAME:
   HEAD    DRAWDOWN  HEAD  DRAWDOWN
 PRINTOUT  PRINTOUT  SAVE    SAVE
 ----------------------------------
     0         0       0       0


     0  LAKE CELLS ARE DRY.

 PERIOD     1     TIME STEP    47     TIME STEP LENGTH  3.9820E+01
 PERIOD TIME  1.2301E+03     TOTAL SIMULATION TIME  1.2301E+03


                 HYDROLOGIC BUDGET SUMMARIES FOR SIMULATED LAKES
     (ALL FLUID FLUXES ARE VOLUMES ADDED TO THE LAKE DURING PRESENT TIME STEP)
     ----------------------------------------------------------------------------------------
 LAKE    STAGE       PRECIP         EVAP         RUNOFF
   1  1.429080E+02  2.886944E+06  2.563407E+06  0.000000E+00

            GROUND WATER            SURFACE WATER
 LAKE    INFLOW     OUTFLOW      INFLOW     OUTFLOW
   1  2.5642E+06  0.0000E+00  0.0000E+00  0.0000E+00

         WATER    CONNECTED LAKE   UPDATED     TIME-STEP          STAGE CHANGE
 LAKE     USE         INFLUX        VOLUME    SURFACE AREA   TIME STEP  CUMULATIVE
   1   0.0000E+00   0.0000E+00   2.4692E+08    6.2500E+06   4.6194E-01  3.2908E+01
 --------------------------------------------------------------------------------



            CUMULATIVE HYDROLOGIC BUDGET SUMMARIES FOR SIMULATED LAKES
     (ALL FLUID FLUXES ARE SUMS OF VOLUMES ADDED TO THE LAKE SINCE INITIAL TIME)
     ---------------------------------------------------------------------------
 LAKE       PRECIP       EVAP       RUNOFF
   1     8.9184E+07  7.9190E+07  0.0000E+00

            GROUND WATER            SURFACE WATER
 LAKE    INFLOW     OUTFLOW      INFLOW     OUTFLOW
   1  1.9570E+08  0.0000E+00  0.0000E+00  0.0000E+00

         WATER    CONNECTED LAKE
 LAKE     USE         INFLUX
   1   0.0000E+00   0.0000E+00
 --------------------------------------------------------------------------------

 
 SOLVING FOR HEAD 
 ALL LAKES CONVERGED AFTER   2  ITERATIONS
 ALL LAKES CONVERGED AFTER   2  ITERATIONS
 ALL LAKES CONVERGED AFTER   2  ITERATIONS
 ALL LAKES CONVERGED AFTER   2  ITERATIONS
 ALL LAKES CONVERGED AFTER   2  ITERATIONS
 ALL LAKES CONVERGED AFTER   2  ITERATIONS
 ALL LAKES CONVERGED AFTER   2  ITERATIONS
 ALL LAKES CONVERGED AFTER   2  ITERATIONS
 ALL LAKES CONVERGED AFTER   2  ITERATIONS
 ALL LAKES CONVERGED AFTER   2  ITERATIONS
 ALL LAKES CONVERGED AFTER   2  ITERATIONS
 ALL LAKES CONVERGED AFTER   2  ITERATIONS
 ALL LAKES CONVERGED AFTER   2  ITERATIONS
 ALL LAKES CONVERGED AFTER   2  ITERATIONS
 ALL LAKES CONVERGED AFTER   2  ITERATIONS
 ALL LAKES CONVERGED AFTER   2  ITERATIONS
 ALL LAKES CONVERGED AFTER   2  ITERATIONS
 ALL LAKES CONVERGED AFTER   2  ITERATIONS
 ALL LAKES CONVERGED AFTER   2  ITERATIONS
 ALL LAKES CONVERGED AFTER   2  ITERATIONS
 ALL LAKES CONVERGED AFTER   2  ITERATIONS
 ALL LAKES CONVERGED AFTER   2  ITERATIONS
 ALL LAKES CONVERGED AFTER   2  ITERATIONS
 ALL LAKES CONVERGED AFTER   2  ITERATIONS
    24 ITERATIONS FOR TIME STEP  48 IN STRESS PERIOD    1

 MAXIMUM HEAD CHANGE FOR EACH ITERATION:

    HEAD CHANGE   HEAD CHANGE   HEAD CHANGE   HEAD CHANGE   HEAD CHANGE
  LAYER,ROW,COL LAYER,ROW,COL LAYER,ROW,COL LAYER,ROW,COL LAYER,ROW,COL
 ----------------------------------------------------------------------
     0.1397        0.9958E-01    0.9926E-01    0.5008E-01    0.6392E-01
  (  3,  9,  9) (  5,  8, 10) (  5, 10,  8) (  3,  8, 10) (  3, 10,  8)
     0.2643E-01    0.1902E-01    0.1216E-01    0.1552E-01    0.6555E-02
  (  2,  7,  7) (  5, 10,  8) (  3,  8, 10) (  3, 10,  8) (  3,  8, 10)
     0.7680E-02    0.3712E-02    0.3678E-02    0.1765E-02    0.2251E-02
  (  3,  8,  8) (  5,  9,  9) (  5, 10,  8) (  3,  8, 10) (  3, 10,  8)
     0.9253E-03    0.6669E-03    0.4336E-03    0.5510E-03    0.2308E-03
  (  2,  7,  7) (  5, 10,  8) (  2,  9, 11) (  3, 10,  8) (  3,  8, 10)
     0.2717E-03    0.1331E-03    0.1273E-03    0.6048E-04
  (  2,  7,  7) (  5,  9,  9) (  5, 10,  8) (  3,  8, 10)


 HEAD/DRAWDOWN PRINTOUT FLAG = 0     TOTAL BUDGET PRINTOUT FLAG = 0
 CELL-BY-CELL FLOW TERM FLAG = 1

 OUTPUT FLAGS FOR ALL LAYERS ARE THE SAME:
   HEAD    DRAWDOWN  HEAD  DRAWDOWN
 PRINTOUT  PRINTOUT  SAVE    SAVE
 ----------------------------------
     0         0       0       0


     0  LAKE CELLS ARE DRY.

 PERIOD     1     TIME STEP    48     TIME STEP LENGTH  4.0616E+01
 PERIOD TIME  1.2707E+03     TOTAL SIMULATION TIME  1.2707E+03


                 HYDROLOGIC BUDGET SUMMARIES FOR SIMULATED LAKES
     (ALL FLUID FLUXES ARE VOLUMES ADDED TO THE LAKE DURING PRESENT TIME STEP)
     ----------------------------------------------------------------------------------------
 LAKE    STAGE       PRECIP         EVAP         RUNOFF
   1  1.433421E+02  2.944682E+06  2.614675E+06  0.000000E+00

            GROUND WATER            SURFACE WATER
 LAKE    INFLOW     OUTFLOW      INFLOW     OUTFLOW
   1  2.4096E+06  2.5583E+04  0.0000E+00  0.0000E+00

         WATER    CONNECTED LAKE   UPDATED     TIME-STEP          STAGE CHANGE
 LAKE     USE         INFLUX        VOLUME    SURFACE AREA   TIME STEP  CUMULATIVE
   1   0.0000E+00   0.0000E+00   2.4964E+08    6.2500E+06   4.3414E-01  3.3342E+01
 --------------------------------------------------------------------------------



            CUMULATIVE HYDROLOGIC BUDGET SUMMARIES FOR SIMULATED LAKES
     (ALL FLUID FLUXES ARE SUMS OF VOLUMES ADDED TO THE LAKE SINCE INITIAL TIME)
     ---------------------------------------------------------------------------
 LAKE       PRECIP       EVAP       RUNOFF
   1     9.2129E+07  8.1804E+07  0.0000E+00

            GROUND WATER            SURFACE WATER
 LAKE    INFLOW     OUTFLOW      INFLOW     OUTFLOW
   1  1.9811E+08  2.5583E+04  0.0000E+00  0.0000E+00

         WATER    CONNECTED LAKE
 LAKE     USE         INFLUX
   1   0.0000E+00   0.0000E+00
 --------------------------------------------------------------------------------

 
 SOLVING FOR HEAD 
 ALL LAKES CONVERGED AFTER   2  ITERATIONS
 ALL LAKES CONVERGED AFTER   2  ITERATIONS
 ALL LAKES CONVERGED AFTER   2  ITERATIONS
 ALL LAKES CONVERGED AFTER   2  ITERATIONS
 ALL LAKES CONVERGED AFTER   2  ITERATIONS
 ALL LAKES CONVERGED AFTER   2  ITERATIONS
 ALL LAKES CONVERGED AFTER   2  ITERATIONS
 ALL LAKES CONVERGED AFTER   2  ITERATIONS
 ALL LAKES CONVERGED AFTER   2  ITERATIONS
 ALL LAKES CONVERGED AFTER   2  ITERATIONS
 ALL LAKES CONVERGED AFTER   2  ITERATIONS
 ALL LAKES CONVERGED AFTER   2  ITERATIONS
 ALL LAKES CONVERGED AFTER   2  ITERATIONS
 ALL LAKES CONVERGED AFTER   2  ITERATIONS
 ALL LAKES CONVERGED AFTER   2  ITERATIONS
 ALL LAKES CONVERGED AFTER   2  ITERATIONS
 ALL LAKES CONVERGED AFTER   2  ITERATIONS
 ALL LAKES CONVERGED AFTER   2  ITERATIONS
 ALL LAKES CONVERGED AFTER   2  ITERATIONS
 ALL LAKES CONVERGED AFTER   2  ITERATIONS
 ALL LAKES CONVERGED AFTER   2  ITERATIONS
 ALL LAKES CONVERGED AFTER   2  ITERATIONS
 ALL LAKES CONVERGED AFTER   2  ITERATIONS
 ALL LAKES CONVERGED AFTER   2  ITERATIONS
    24 ITERATIONS FOR TIME STEP  49 IN STRESS PERIOD    1

 MAXIMUM HEAD CHANGE FOR EACH ITERATION:

    HEAD CHANGE   HEAD CHANGE   HEAD CHANGE   HEAD CHANGE   HEAD CHANGE
  LAYER,ROW,COL LAYER,ROW,COL LAYER,ROW,COL LAYER,ROW,COL LAYER,ROW,COL
 ----------------------------------------------------------------------
     0.1295        0.9286E-01    0.9290E-01    0.4724E-01    0.6040E-01
  (  3, 10,  9) (  5,  8, 10) (  5, 10,  8) (  3,  8, 10) (  3, 10,  8)
     0.2516E-01    0.1819E-01    0.1172E-01    0.1498E-01    0.6375E-02
  (  2,  7,  7) (  5, 10,  8) (  3,  8, 10) (  3, 10,  8) (  3,  8, 10)
     0.7482E-02    0.3641E-02    0.3617E-02    0.1755E-02    0.2232E-02
  (  2,  7,  7) (  5,  9,  9) (  5, 10,  8) (  3,  8, 10) (  3, 10,  8)
     0.9246E-03    0.6671E-03    0.4340E-03    0.5525E-03    0.2365E-03
  (  2,  7,  7) (  5, 10,  8) (  2,  9, 11) (  3, 10,  8) (  2,  7, 11)
     0.2809E-03    0.1331E-03    0.1373E-03    0.6824E-04
  (  2,  7,  7) (  5,  9,  9) (  5, 10,  8) (  2,  7,  9)


 HEAD/DRAWDOWN PRINTOUT FLAG = 0     TOTAL BUDGET PRINTOUT FLAG = 0
 CELL-BY-CELL FLOW TERM FLAG = 1

 OUTPUT FLAGS FOR ALL LAYERS ARE THE SAME:
   HEAD    DRAWDOWN  HEAD  DRAWDOWN
 PRINTOUT  PRINTOUT  SAVE    SAVE
 ----------------------------------
     0         0       0       0


     0  LAKE CELLS ARE DRY.

 PERIOD     1     TIME STEP    49     TIME STEP LENGTH  4.1429E+01
 PERIOD TIME  1.3122E+03     TOTAL SIMULATION TIME  1.3122E+03


                 HYDROLOGIC BUDGET SUMMARIES FOR SIMULATED LAKES
     (ALL FLUID FLUXES ARE VOLUMES ADDED TO THE LAKE DURING PRESENT TIME STEP)
     ----------------------------------------------------------------------------------------
 LAKE    STAGE       PRECIP         EVAP         RUNOFF
   1  1.437493E+02  3.003576E+06  2.666968E+06  0.000000E+00

            GROUND WATER            SURFACE WATER
 LAKE    INFLOW     OUTFLOW      INFLOW     OUTFLOW
   1  2.2786E+06  6.9359E+04  0.0000E+00  0.0000E+00

         WATER    CONNECTED LAKE   UPDATED     TIME-STEP          STAGE CHANGE
 LAKE     USE         INFLUX        VOLUME    SURFACE AREA   TIME STEP  CUMULATIVE
   1   0.0000E+00   0.0000E+00   2.5218E+08    6.2500E+06   4.0720E-01  3.3749E+01
 --------------------------------------------------------------------------------



            CUMULATIVE HYDROLOGIC BUDGET SUMMARIES FOR SIMULATED LAKES
     (ALL FLUID FLUXES ARE SUMS OF VOLUMES ADDED TO THE LAKE SINCE INITIAL TIME)
     ---------------------------------------------------------------------------
 LAKE       PRECIP       EVAP       RUNOFF
   1     9.5133E+07  8.4471E+07  0.0000E+00

            GROUND WATER            SURFACE WATER
 LAKE    INFLOW     OUTFLOW      INFLOW     OUTFLOW
   1  2.0039E+08  9.4942E+04  0.0000E+00  0.0000E+00

         WATER    CONNECTED LAKE
 LAKE     USE         INFLUX
   1   0.0000E+00   0.0000E+00
 --------------------------------------------------------------------------------

 
 SOLVING FOR HEAD 
 ALL LAKES CONVERGED AFTER   2  ITERATIONS
 ALL LAKES CONVERGED AFTER   2  ITERATIONS
 ALL LAKES CONVERGED AFTER   2  ITERATIONS
 ALL LAKES CONVERGED AFTER   2  ITERATIONS
 ALL LAKES CONVERGED AFTER   2  ITERATIONS
 ALL LAKES CONVERGED AFTER   2  ITERATIONS
 ALL LAKES CONVERGED AFTER   2  ITERATIONS
 ALL LAKES CONVERGED AFTER   2  ITERATIONS
 ALL LAKES CONVERGED AFTER   2  ITERATIONS
 ALL LAKES CONVERGED AFTER   2  ITERATIONS
 ALL LAKES CONVERGED AFTER   2  ITERATIONS
 ALL LAKES CONVERGED AFTER   2  ITERATIONS
 ALL LAKES CONVERGED AFTER   2  ITERATIONS
 ALL LAKES CONVERGED AFTER   2  ITERATIONS
 ALL LAKES CONVERGED AFTER   2  ITERATIONS
 ALL LAKES CONVERGED AFTER   2  ITERATIONS
 ALL LAKES CONVERGED AFTER   2  ITERATIONS
 ALL LAKES CONVERGED AFTER   2  ITERATIONS
 ALL LAKES CONVERGED AFTER   2  ITERATIONS
 ALL LAKES CONVERGED AFTER   2  ITERATIONS
 ALL LAKES CONVERGED AFTER   2  ITERATIONS
 ALL LAKES CONVERGED AFTER   2  ITERATIONS
 ALL LAKES CONVERGED AFTER   2  ITERATIONS
 ALL LAKES CONVERGED AFTER   2  ITERATIONS
    24 ITERATIONS FOR TIME STEP  50 IN STRESS PERIOD    1

 MAXIMUM HEAD CHANGE FOR EACH ITERATION:

    HEAD CHANGE   HEAD CHANGE   HEAD CHANGE   HEAD CHANGE   HEAD CHANGE
  LAYER,ROW,COL LAYER,ROW,COL LAYER,ROW,COL LAYER,ROW,COL LAYER,ROW,COL
 ----------------------------------------------------------------------
     0.1199        0.8641E-01    0.8677E-01    0.4447E-01    0.5694E-01
  (  3,  9,  8) (  5,  8, 10) (  5, 10,  8) (  3,  8, 10) (  3, 10,  8)
     0.2389E-01    0.1737E-01    0.1126E-01    0.1442E-01    0.6184E-02
  (  2,  7,  7) (  5, 10,  8) (  3,  8, 10) (  3, 10,  8) (  3,  8, 10)
     0.7266E-02    0.3559E-02    0.3548E-02    0.1725E-02    0.2212E-02
  (  3,  8,  8) (  5,  9,  9) (  5, 10,  8) (  3,  8, 10) (  3, 10,  8)
     0.9250E-03    0.6671E-03    0.4384E-03    0.5622E-03    0.2409E-03
  (  2,  7,  7) (  5, 10,  8) (  2,  7, 10) (  3, 10,  8) (  3,  8, 10)
     0.2812E-03    0.1368E-03    0.1378E-03    0.6867E-04
  (  3,  8,  8) (  4,  7,  8) (  5, 10,  8) (  2,  7, 10)


 HEAD/DRAWDOWN PRINTOUT FLAG = 1     TOTAL BUDGET PRINTOUT FLAG = 1
 CELL-BY-CELL FLOW TERM FLAG = 1

 OUTPUT FLAGS FOR EACH LAYER:
          HEAD    DRAWDOWN  HEAD  DRAWDOWN
 LAYER  PRINTOUT  PRINTOUT  SAVE    SAVE
 -----------------------------------------
    1       0         0       0       0
    2       0         0       0       0
    3       0         0       0       0
    4       0         0       0       0
    5       1         0       0       0


     0  LAKE CELLS ARE DRY.

 PERIOD     1     TIME STEP    50     TIME STEP LENGTH  4.2257E+01
 PERIOD TIME  1.3544E+03     TOTAL SIMULATION TIME  1.3544E+03


                 HYDROLOGIC BUDGET SUMMARIES FOR SIMULATED LAKES
     (ALL FLUID FLUXES ARE VOLUMES ADDED TO THE LAKE DURING PRESENT TIME STEP)
     ----------------------------------------------------------------------------------------
 LAKE    STAGE       PRECIP         EVAP         RUNOFF
   1  1.441307E+02  3.063648E+06  2.720308E+06  0.000000E+00

            GROUND WATER            SURFACE WATER
 LAKE    INFLOW     OUTFLOW      INFLOW     OUTFLOW
   1  2.1524E+06  1.1228E+05  0.0000E+00  0.0000E+00

         WATER    CONNECTED LAKE   UPDATED     TIME-STEP          STAGE CHANGE
 LAKE     USE         INFLUX        VOLUME    SURFACE AREA   TIME STEP  CUMULATIVE
   1   0.0000E+00   0.0000E+00   2.5457E+08    6.2500E+06   3.8134E-01  3.4131E+01
 --------------------------------------------------------------------------------



            CUMULATIVE HYDROLOGIC BUDGET SUMMARIES FOR SIMULATED LAKES
     (ALL FLUID FLUXES ARE SUMS OF VOLUMES ADDED TO THE LAKE SINCE INITIAL TIME)
     ---------------------------------------------------------------------------
 LAKE       PRECIP       EVAP       RUNOFF
   1     9.8196E+07  8.7192E+07  0.0000E+00

            GROUND WATER            SURFACE WATER
 LAKE    INFLOW     OUTFLOW      INFLOW     OUTFLOW
   1  2.0254E+08  2.0722E+05  0.0000E+00  0.0000E+00

         WATER    CONNECTED LAKE
 LAKE     USE         INFLUX
   1   0.0000E+00   0.0000E+00
 --------------------------------------------------------------------------------

1
              HEAD IN LAYER   5 AT END OF TIME STEP  50 IN STRESS PERIOD    1
  ---------------------------------------------------------------------------

          1      2      3      4      5      6      7      8      9     10
 .........................................................................
   1   160.0  158.9  157.3  155.8  154.2  152.7  151.5  150.8  150.0  149.2
   2   160.0  158.5  156.7  155.0  153.4  151.8  150.6  149.8  149.0  148.2
   3   160.0  158.3  156.2  154.3  152.6  150.9  149.6  148.8  148.1  147.3
   4   160.0  158.2  155.9  153.9  152.0  150.2  148.9  148.1  147.3  146.6
   5   160.0  158.1  155.7  153.6  151.5  149.5  148.1  147.3  146.6  145.9
   6   160.0  158.1  155.6  153.3  151.1  148.6  146.8  146.0  145.4  144.9
   7   160.0  158.1  155.5  153.2  150.8  147.8  144.1  144.0  144.0  144.0
   8   160.0  158.1  155.5  153.1  150.6  147.5  144.1  143.9  143.9  143.9
   9   160.0  158.1  155.5  153.1  150.6  147.4  144.1  143.9  143.9  143.9
  10   160.0  158.1  155.5  153.1  150.6  147.5  144.1  143.9  143.9  143.9
  11   160.0  158.1  155.5  153.2  150.8  147.8  144.1  144.0  144.0  144.0
  12   160.0  158.1  155.6  153.3  151.1  148.6  146.8  146.0  145.4  144.9
  13   160.0  158.1  155.7  153.6  151.5  149.5  148.1  147.3  146.6  145.9
  14   160.0  158.2  155.9  153.9  152.0  150.2  148.9  148.1  147.3  146.6
  15   160.0  158.3  156.2  154.3  152.6  150.9  149.6  148.8  148.1  147.3
  16   160.0  158.5  156.7  155.0  153.4  151.8  150.6  149.8  149.0  148.2
  17   160.0  158.9  157.3  155.8  154.2  152.7  151.5  150.8  150.0  149.2
1
              HEAD IN LAYER   5 AT END OF TIME STEP  50 IN STRESS PERIOD    1
  ---------------------------------------------------------------------------

         11     12     13     14     15     16     17
 ....................................................
   1   148.5  147.3  145.8  144.2  142.7  141.1  140.0
   2   147.5  146.3  144.8  143.3  141.9  140.6  140.0
   3   146.5  145.4  144.0  142.6  141.3  140.2  140.0
   4   145.9  144.8  143.4  142.1  141.0  140.1  140.0
   5   145.2  144.3  143.1  141.8  140.8  140.0  140.0
   6   144.5  143.8  142.8  141.7  140.7  140.0  140.0
   7   143.9  143.5  142.6  141.6  140.6  140.0  140.0
   8   143.9  143.5  142.6  141.5  140.6  140.0  140.0
   9   143.9  143.4  142.5  141.5  140.6  140.0  140.0
  10   143.9  143.5  142.6  141.5  140.6  140.0  140.0
  11   143.9  143.5  142.6  141.6  140.6  140.0  140.0
  12   144.5  143.8  142.8  141.7  140.7  140.0  140.0
  13   145.2  144.3  143.1  141.8  140.8  140.0  140.0
  14   145.9  144.8  143.4  142.1  141.0  140.1  140.0
  15   146.5  145.4  144.0  142.6  141.3  140.2  140.0
  16   147.5  146.3  144.8  143.3  141.9  140.6  140.0
  17   148.5  147.3  145.8  144.2  142.7  141.1  140.0
1
  VOLUMETRIC BUDGET FOR ENTIRE MODEL AT END OF TIME STEP 50 IN STRESS PERIOD   1
  ------------------------------------------------------------------------------

     CUMULATIVE VOLUMES      L**3       RATES FOR THIS TIME STEP      L**3/T
     ------------------                 ------------------------

           IN:                                      IN:
           ---                                      ---
             STORAGE =       32205.5820               STORAGE =           0.0000
       CONSTANT HEAD =   677610176.0000         CONSTANT HEAD =      177279.4375
                  ET =           0.0000                    ET =           0.0000
            RECHARGE =  2356710912.0000              RECHARGE =     1740000.0000
     SPECIFIED FLOWS =           0.0000       SPECIFIED FLOWS =           0.0000
       LAKE  SEEPAGE =      207224.2656         LAKE  SEEPAGE =        2657.1218

            TOTAL IN =  3034560512.0000              TOTAL IN =     1919936.5000

          OUT:                                     OUT:
          ----                                     ----
             STORAGE =   994943680.0000               STORAGE =       34905.2344
       CONSTANT HEAD =     5268902.5000         CONSTANT HEAD =        6803.1875
                  ET =  1831784704.0000                    ET =     1827270.2500
            RECHARGE =           0.0000              RECHARGE =           0.0000
     SPECIFIED FLOWS =           0.0000       SPECIFIED FLOWS =           0.0000
       LAKE  SEEPAGE =   202543360.0000         LAKE  SEEPAGE =       50935.8320

           TOTAL OUT =  3034540544.0000             TOTAL OUT =     1919914.5000

            IN - OUT =       19968.0000              IN - OUT =          22.0000

 PERCENT DISCREPANCY =           0.00     PERCENT DISCREPANCY =           0.00






          TIME SUMMARY AT END OF TIME STEP  50 IN STRESS PERIOD    1
                    SECONDS     MINUTES      HOURS       DAYS        YEARS
                    -----------------------------------------------------------
   TIME STEP LENGTH 3.65102E+06  60850.      1014.2      42.257     0.11569    
 STRESS PERIOD TIME 1.17023E+08 1.95038E+06  32506.      1354.4      3.7082    
         TOTAL TIME 1.17023E+08 1.95038E+06  32506.      1354.4      3.7082    
1
 
 SOLVING FOR HEAD 
 ALL LAKES CONVERGED AFTER   2  ITERATIONS
 ALL LAKES CONVERGED AFTER   2  ITERATIONS
 ALL LAKES CONVERGED AFTER   2  ITERATIONS
 ALL LAKES CONVERGED AFTER   2  ITERATIONS
 ALL LAKES CONVERGED AFTER   2  ITERATIONS
 ALL LAKES CONVERGED AFTER   2  ITERATIONS
 ALL LAKES CONVERGED AFTER   2  ITERATIONS
 ALL LAKES CONVERGED AFTER   2  ITERATIONS
 ALL LAKES CONVERGED AFTER   2  ITERATIONS
 ALL LAKES CONVERGED AFTER   2  ITERATIONS
 ALL LAKES CONVERGED AFTER   2  ITERATIONS
 ALL LAKES CONVERGED AFTER   2  ITERATIONS
 ALL LAKES CONVERGED AFTER   2  ITERATIONS
 ALL LAKES CONVERGED AFTER   2  ITERATIONS
 ALL LAKES CONVERGED AFTER   2  ITERATIONS
 ALL LAKES CONVERGED AFTER   2  ITERATIONS
 ALL LAKES CONVERGED AFTER   2  ITERATIONS
 ALL LAKES CONVERGED AFTER   2  ITERATIONS
 ALL LAKES CONVERGED AFTER   2  ITERATIONS
 ALL LAKES CONVERGED AFTER   2  ITERATIONS
 ALL LAKES CONVERGED AFTER   2  ITERATIONS
 ALL LAKES CONVERGED AFTER   2  ITERATIONS
 ALL LAKES CONVERGED AFTER   2  ITERATIONS
 ALL LAKES CONVERGED AFTER   2  ITERATIONS
    24 ITERATIONS FOR TIME STEP  51 IN STRESS PERIOD    1

 MAXIMUM HEAD CHANGE FOR EACH ITERATION:

    HEAD CHANGE   HEAD CHANGE   HEAD CHANGE   HEAD CHANGE   HEAD CHANGE
  LAYER,ROW,COL LAYER,ROW,COL LAYER,ROW,COL LAYER,ROW,COL LAYER,ROW,COL
 ----------------------------------------------------------------------
     0.1107        0.8026E-01    0.8091E-01    0.4178E-01    0.5358E-01
  (  3, 10,  9) (  5,  8, 10) (  5, 10,  8) (  3,  8, 10) (  3, 10,  8)
     0.2264E-01    0.1655E-01    0.1079E-01    0.1384E-01    0.5983E-02
  (  2,  7,  7) (  5, 10,  8) (  3,  8, 10) (  3, 10,  8) (  3,  8, 10)
     0.7035E-02    0.3468E-02    0.3471E-02    0.1704E-02    0.2182E-02
  (  2,  7,  7) (  5,  9,  9) (  5, 10,  8) (  3,  8, 10) (  3, 10,  8)
     0.9237E-03    0.6662E-03    0.4385E-03    0.5610E-03    0.2409E-03
  (  2,  7,  7) (  5, 10,  8) (  2,  7, 10) (  3, 10,  8) (  3,  8, 10)
     0.2902E-03    0.1454E-03    0.1425E-03    0.7056E-04
  (  2,  7,  7) (  4, 10, 11) (  5, 10,  8) (  3,  8, 10)


 HEAD/DRAWDOWN PRINTOUT FLAG = 0     TOTAL BUDGET PRINTOUT FLAG = 0
 CELL-BY-CELL FLOW TERM FLAG = 1

 OUTPUT FLAGS FOR ALL LAYERS ARE THE SAME:
   HEAD    DRAWDOWN  HEAD  DRAWDOWN
 PRINTOUT  PRINTOUT  SAVE    SAVE
 ----------------------------------
     0         0       0       0


     0  LAKE CELLS ARE DRY.

 PERIOD     1     TIME STEP    51     TIME STEP LENGTH  4.3102E+01
 PERIOD TIME  1.3975E+03     TOTAL SIMULATION TIME  1.3975E+03


                 HYDROLOGIC BUDGET SUMMARIES FOR SIMULATED LAKES
     (ALL FLUID FLUXES ARE VOLUMES ADDED TO THE LAKE DURING PRESENT TIME STEP)
     ----------------------------------------------------------------------------------------
 LAKE    STAGE       PRECIP         EVAP         RUNOFF
   1  1.444870E+02  3.124920E+06  2.774714E+06  0.000000E+00

            GROUND WATER            SURFACE WATER
 LAKE    INFLOW     OUTFLOW      INFLOW     OUTFLOW
   1  2.0413E+06  1.6437E+05  0.0000E+00  0.0000E+00

         WATER    CONNECTED LAKE   UPDATED     TIME-STEP          STAGE CHANGE
 LAKE     USE         INFLUX        VOLUME    SURFACE AREA   TIME STEP  CUMULATIVE
   1   0.0000E+00   0.0000E+00   2.5679E+08    6.2500E+06   3.5629E-01  3.4487E+01
 --------------------------------------------------------------------------------



            CUMULATIVE HYDROLOGIC BUDGET SUMMARIES FOR SIMULATED LAKES
     (ALL FLUID FLUXES ARE SUMS OF VOLUMES ADDED TO THE LAKE SINCE INITIAL TIME)
     ---------------------------------------------------------------------------
 LAKE       PRECIP       EVAP       RUNOFF
   1     1.0132E+08  8.9966E+07  0.0000E+00

            GROUND WATER            SURFACE WATER
 LAKE    INFLOW     OUTFLOW      INFLOW     OUTFLOW
   1  2.0458E+08  3.7159E+05  0.0000E+00  0.0000E+00

         WATER    CONNECTED LAKE
 LAKE     USE         INFLUX
   1   0.0000E+00   0.0000E+00
 --------------------------------------------------------------------------------

 
 SOLVING FOR HEAD 
 ALL LAKES CONVERGED AFTER   2  ITERATIONS
 ALL LAKES CONVERGED AFTER   2  ITERATIONS
 ALL LAKES CONVERGED AFTER   2  ITERATIONS
 ALL LAKES CONVERGED AFTER   2  ITERATIONS
 ALL LAKES CONVERGED AFTER   2  ITERATIONS
 ALL LAKES CONVERGED AFTER   2  ITERATIONS
 ALL LAKES CONVERGED AFTER   2  ITERATIONS
 ALL LAKES CONVERGED AFTER   2  ITERATIONS
 ALL LAKES CONVERGED AFTER   2  ITERATIONS
 ALL LAKES CONVERGED AFTER   2  ITERATIONS
 ALL LAKES CONVERGED AFTER   2  ITERATIONS
 ALL LAKES CONVERGED AFTER   2  ITERATIONS
 ALL LAKES CONVERGED AFTER   2  ITERATIONS
 ALL LAKES CONVERGED AFTER   2  ITERATIONS
 ALL LAKES CONVERGED AFTER   2  ITERATIONS
 ALL LAKES CONVERGED AFTER   2  ITERATIONS
 ALL LAKES CONVERGED AFTER   2  ITERATIONS
 ALL LAKES CONVERGED AFTER   2  ITERATIONS
 ALL LAKES CONVERGED AFTER   2  ITERATIONS
 ALL LAKES CONVERGED AFTER   2  ITERATIONS
 ALL LAKES CONVERGED AFTER   2  ITERATIONS
 ALL LAKES CONVERGED AFTER   2  ITERATIONS
 ALL LAKES CONVERGED AFTER   2  ITERATIONS
 ALL LAKES CONVERGED AFTER   2  ITERATIONS
    24 ITERATIONS FOR TIME STEP  52 IN STRESS PERIOD    1

 MAXIMUM HEAD CHANGE FOR EACH ITERATION:

    HEAD CHANGE   HEAD CHANGE   HEAD CHANGE   HEAD CHANGE   HEAD CHANGE
  LAYER,ROW,COL LAYER,ROW,COL LAYER,ROW,COL LAYER,ROW,COL LAYER,ROW,COL
 ----------------------------------------------------------------------
     0.1021        0.7437E-01    0.7525E-01    0.3915E-01    0.5029E-01
  (  3, 10,  9) (  5,  8, 10) (  5, 10,  8) (  3,  8, 10) (  3, 10,  8)
     0.2141E-01    0.1572E-01    0.1032E-01    0.1326E-01    0.5773E-02
  (  2,  7,  7) (  5, 10,  8) (  3,  8, 10) (  3, 10,  8) (  3,  8, 10)
     0.6799E-02    0.3367E-02    0.3388E-02    0.1674E-02    0.2143E-02
  (  2,  7,  7) (  5,  9,  9) (  5, 10,  8) (  3,  8, 10) (  3, 10,  8)
     0.9143E-03    0.6653E-03    0.4420E-03    0.5614E-03    0.2507E-03
  (  2,  7,  7) (  5, 10,  8) (  3,  8, 10) (  3, 10,  8) (  3,  8, 10)
     0.2906E-03    0.1438E-03    0.1421E-03    0.7056E-04
  (  3,  8,  8) (  5,  9,  9) (  5, 10,  8) (  3,  8, 10)


 HEAD/DRAWDOWN PRINTOUT FLAG = 0     TOTAL BUDGET PRINTOUT FLAG = 0
 CELL-BY-CELL FLOW TERM FLAG = 1

 OUTPUT FLAGS FOR ALL LAYERS ARE THE SAME:
   HEAD    DRAWDOWN  HEAD  DRAWDOWN
 PRINTOUT  PRINTOUT  SAVE    SAVE
 ----------------------------------
     0         0       0       0


     0  LAKE CELLS ARE DRY.

 PERIOD     1     TIME STEP    52     TIME STEP LENGTH  4.3964E+01
 PERIOD TIME  1.4415E+03     TOTAL SIMULATION TIME  1.4415E+03


                 HYDROLOGIC BUDGET SUMMARIES FOR SIMULATED LAKES
     (ALL FLUID FLUXES ARE VOLUMES ADDED TO THE LAKE DURING PRESENT TIME STEP)
     ----------------------------------------------------------------------------------------
 LAKE    STAGE       PRECIP         EVAP         RUNOFF
   1  1.448191E+02  3.187418E+06  2.830208E+06  0.000000E+00

            GROUND WATER            SURFACE WATER
 LAKE    INFLOW     OUTFLOW      INFLOW     OUTFLOW
   1  1.9461E+06  2.2626E+05  0.0000E+00  0.0000E+00

         WATER    CONNECTED LAKE   UPDATED     TIME-STEP          STAGE CHANGE
 LAKE     USE         INFLUX        VOLUME    SURFACE AREA   TIME STEP  CUMULATIVE
   1   0.0000E+00   0.0000E+00   2.5887E+08    6.2500E+06   3.3220E-01  3.4819E+01
 --------------------------------------------------------------------------------



            CUMULATIVE HYDROLOGIC BUDGET SUMMARIES FOR SIMULATED LAKES
     (ALL FLUID FLUXES ARE SUMS OF VOLUMES ADDED TO THE LAKE SINCE INITIAL TIME)
     ---------------------------------------------------------------------------
 LAKE       PRECIP       EVAP       RUNOFF
   1     1.0451E+08  9.2796E+07  0.0000E+00

            GROUND WATER            SURFACE WATER
 LAKE    INFLOW     OUTFLOW      INFLOW     OUTFLOW
   1  2.0653E+08  5.9785E+05  0.0000E+00  0.0000E+00

         WATER    CONNECTED LAKE
 LAKE     USE         INFLUX
   1   0.0000E+00   0.0000E+00
 --------------------------------------------------------------------------------

 
 SOLVING FOR HEAD 
 ALL LAKES CONVERGED AFTER   2  ITERATIONS
 ALL LAKES CONVERGED AFTER   2  ITERATIONS
 ALL LAKES CONVERGED AFTER   2  ITERATIONS
 ALL LAKES CONVERGED AFTER   2  ITERATIONS
 ALL LAKES CONVERGED AFTER   2  ITERATIONS
 ALL LAKES CONVERGED AFTER   2  ITERATIONS
 ALL LAKES CONVERGED AFTER   2  ITERATIONS
 ALL LAKES CONVERGED AFTER   2  ITERATIONS
 ALL LAKES CONVERGED AFTER   2  ITERATIONS
 ALL LAKES CONVERGED AFTER   2  ITERATIONS
 ALL LAKES CONVERGED AFTER   2  ITERATIONS
 ALL LAKES CONVERGED AFTER   2  ITERATIONS
 ALL LAKES CONVERGED AFTER   2  ITERATIONS
 ALL LAKES CONVERGED AFTER   2  ITERATIONS
 ALL LAKES CONVERGED AFTER   2  ITERATIONS
 ALL LAKES CONVERGED AFTER   2  ITERATIONS
 ALL LAKES CONVERGED AFTER   2  ITERATIONS
 ALL LAKES CONVERGED AFTER   2  ITERATIONS
 ALL LAKES CONVERGED AFTER   2  ITERATIONS
 ALL LAKES CONVERGED AFTER   2  ITERATIONS
 ALL LAKES CONVERGED AFTER   2  ITERATIONS
 ALL LAKES CONVERGED AFTER   2  ITERATIONS
 ALL LAKES CONVERGED AFTER   2  ITERATIONS
 ALL LAKES CONVERGED AFTER   2  ITERATIONS
    24 ITERATIONS FOR TIME STEP  53 IN STRESS PERIOD    1

 MAXIMUM HEAD CHANGE FOR EACH ITERATION:

    HEAD CHANGE   HEAD CHANGE   HEAD CHANGE   HEAD CHANGE   HEAD CHANGE
  LAYER,ROW,COL LAYER,ROW,COL LAYER,ROW,COL LAYER,ROW,COL LAYER,ROW,COL
 ----------------------------------------------------------------------
     0.9387E-01    0.6875E-01    0.6983E-01    0.3660E-01    0.4708E-01
  (  3, 10,  9) (  5,  8, 10) (  5, 10,  8) (  3,  8, 10) (  3, 10,  8)
     0.2018E-01    0.1491E-01    0.9831E-02    0.1266E-01    0.5551E-02
  (  2,  7,  7) (  5, 10,  8) (  3,  8, 10) (  3, 10,  8) (  3,  8, 10)
     0.6546E-02    0.3264E-02    0.3293E-02    0.1644E-02    0.2103E-02
  (  2,  7,  7) (  5,  9,  9) (  5, 10,  8) (  3,  8, 10) (  3, 10,  8)
     0.9047E-03    0.6640E-03    0.4342E-03    0.5625E-03    0.2507E-03
  (  2,  7,  7) (  5, 10,  8) (  2,  9, 11) (  3, 10,  8) (  3,  8, 10)
     0.2907E-03    0.1462E-03    0.1425E-03    0.8019E-04
  (  3,  8,  8) (  4,  7,  8) (  5, 10,  8) (  3,  8, 10)


 HEAD/DRAWDOWN PRINTOUT FLAG = 0     TOTAL BUDGET PRINTOUT FLAG = 0
 CELL-BY-CELL FLOW TERM FLAG = 1

 OUTPUT FLAGS FOR ALL LAYERS ARE THE SAME:
   HEAD    DRAWDOWN  HEAD  DRAWDOWN
 PRINTOUT  PRINTOUT  SAVE    SAVE
 ----------------------------------
     0         0       0       0


     0  LAKE CELLS ARE DRY.

 PERIOD     1     TIME STEP    53     TIME STEP LENGTH  4.4844E+01
 PERIOD TIME  1.4863E+03     TOTAL SIMULATION TIME  1.4863E+03


                 HYDROLOGIC BUDGET SUMMARIES FOR SIMULATED LAKES
     (ALL FLUID FLUXES ARE VOLUMES ADDED TO THE LAKE DURING PRESENT TIME STEP)
     ----------------------------------------------------------------------------------------
 LAKE    STAGE       PRECIP         EVAP         RUNOFF
   1  1.451283E+02  3.251167E+06  2.886812E+06  0.000000E+00

            GROUND WATER            SURFACE WATER
 LAKE    INFLOW     OUTFLOW      INFLOW     OUTFLOW
   1  1.8557E+06  2.8683E+05  0.0000E+00  0.0000E+00

         WATER    CONNECTED LAKE   UPDATED     TIME-STEP          STAGE CHANGE
 LAKE     USE         INFLUX        VOLUME    SURFACE AREA   TIME STEP  CUMULATIVE
   1   0.0000E+00   0.0000E+00   2.6080E+08    6.2500E+06   3.0919E-01  3.5128E+01
 --------------------------------------------------------------------------------



            CUMULATIVE HYDROLOGIC BUDGET SUMMARIES FOR SIMULATED LAKES
     (ALL FLUID FLUXES ARE SUMS OF VOLUMES ADDED TO THE LAKE SINCE INITIAL TIME)
     ---------------------------------------------------------------------------
 LAKE       PRECIP       EVAP       RUNOFF
   1     1.0776E+08  9.5683E+07  0.0000E+00

            GROUND WATER            SURFACE WATER
 LAKE    INFLOW     OUTFLOW      INFLOW     OUTFLOW
   1  2.0839E+08  8.8468E+05  0.0000E+00  0.0000E+00

         WATER    CONNECTED LAKE
 LAKE     USE         INFLUX
   1   0.0000E+00   0.0000E+00
 --------------------------------------------------------------------------------

 
 SOLVING FOR HEAD 
 ALL LAKES CONVERGED AFTER   2  ITERATIONS
 ALL LAKES CONVERGED AFTER   2  ITERATIONS
 ALL LAKES CONVERGED AFTER   2  ITERATIONS
 ALL LAKES CONVERGED AFTER   2  ITERATIONS
 ALL LAKES CONVERGED AFTER   2  ITERATIONS
 ALL LAKES CONVERGED AFTER   2  ITERATIONS
 ALL LAKES CONVERGED AFTER   2  ITERATIONS
 ALL LAKES CONVERGED AFTER   2  ITERATIONS
 ALL LAKES CONVERGED AFTER   2  ITERATIONS
 ALL LAKES CONVERGED AFTER   2  ITERATIONS
 ALL LAKES CONVERGED AFTER   2  ITERATIONS
 ALL LAKES CONVERGED AFTER   2  ITERATIONS
 ALL LAKES CONVERGED AFTER   2  ITERATIONS
 ALL LAKES CONVERGED AFTER   2  ITERATIONS
 ALL LAKES CONVERGED AFTER   2  ITERATIONS
 ALL LAKES CONVERGED AFTER   2  ITERATIONS
 ALL LAKES CONVERGED AFTER   2  ITERATIONS
 ALL LAKES CONVERGED AFTER   2  ITERATIONS
 ALL LAKES CONVERGED AFTER   2  ITERATIONS
 ALL LAKES CONVERGED AFTER   2  ITERATIONS
 ALL LAKES CONVERGED AFTER   2  ITERATIONS
 ALL LAKES CONVERGED AFTER   2  ITERATIONS
 ALL LAKES CONVERGED AFTER   2  ITERATIONS
 ALL LAKES CONVERGED AFTER   2  ITERATIONS
    24 ITERATIONS FOR TIME STEP  54 IN STRESS PERIOD    1

 MAXIMUM HEAD CHANGE FOR EACH ITERATION:

    HEAD CHANGE   HEAD CHANGE   HEAD CHANGE   HEAD CHANGE   HEAD CHANGE
  LAYER,ROW,COL LAYER,ROW,COL LAYER,ROW,COL LAYER,ROW,COL LAYER,ROW,COL
 ----------------------------------------------------------------------
     0.8616E-01    0.6344E-01    0.6467E-01    0.3415E-01    0.4399E-01
  (  3, 10,  9) (  5,  8, 10) (  5, 10,  8) (  3,  8, 10) (  3, 10,  8)
     0.1898E-01    0.1409E-01    0.9355E-02    0.1207E-01    0.5330E-02
  (  2,  7,  7) (  5, 10,  8) (  3,  8, 10) (  3, 10,  8) (  3,  8, 10)
     0.6294E-02    0.3152E-02    0.3194E-02    0.1604E-02    0.2053E-02
  (  2,  7,  7) (  5,  9,  9) (  5, 10,  8) (  3,  8, 10) (  3, 10,  8)
     0.8856E-03    0.6617E-03    0.4433E-03    0.5627E-03    0.2509E-03
  (  2,  7,  7) (  5, 10,  8) (  2,  9, 11) (  4, 10,  8) (  3,  8, 10)
     0.2907E-03    0.1534E-03    0.1458E-03    0.7809E-04
  (  3,  8,  8) (  5,  9,  9) (  5, 10,  8) (  2,  7,  9)


 HEAD/DRAWDOWN PRINTOUT FLAG = 0     TOTAL BUDGET PRINTOUT FLAG = 0
 CELL-BY-CELL FLOW TERM FLAG = 1

 OUTPUT FLAGS FOR ALL LAYERS ARE THE SAME:
   HEAD    DRAWDOWN  HEAD  DRAWDOWN
 PRINTOUT  PRINTOUT  SAVE    SAVE
 ----------------------------------
     0         0       0       0


     0  LAKE CELLS ARE DRY.

 PERIOD     1     TIME STEP    54     TIME STEP LENGTH  4.5741E+01
 PERIOD TIME  1.5321E+03     TOTAL SIMULATION TIME  1.5321E+03


                 HYDROLOGIC BUDGET SUMMARIES FOR SIMULATED LAKES
     (ALL FLUID FLUXES ARE VOLUMES ADDED TO THE LAKE DURING PRESENT TIME STEP)
     ----------------------------------------------------------------------------------------
 LAKE    STAGE       PRECIP         EVAP         RUNOFF
   1  1.454155E+02  3.316190E+06  2.944548E+06  0.000000E+00

            GROUND WATER            SURFACE WATER
 LAKE    INFLOW     OUTFLOW      INFLOW     OUTFLOW
   1  1.7732E+06  3.4940E+05  0.0000E+00  0.0000E+00

         WATER    CONNECTED LAKE   UPDATED     TIME-STEP          STAGE CHANGE
 LAKE     USE         INFLUX        VOLUME    SURFACE AREA   TIME STEP  CUMULATIVE
   1   0.0000E+00   0.0000E+00   2.6260E+08    6.2500E+06   2.8715E-01  3.5415E+01
 --------------------------------------------------------------------------------



            CUMULATIVE HYDROLOGIC BUDGET SUMMARIES FOR SIMULATED LAKES
     (ALL FLUID FLUXES ARE SUMS OF VOLUMES ADDED TO THE LAKE SINCE INITIAL TIME)
     ---------------------------------------------------------------------------
 LAKE       PRECIP       EVAP       RUNOFF
   1     1.1108E+08  9.8628E+07  0.0000E+00

            GROUND WATER            SURFACE WATER
 LAKE    INFLOW     OUTFLOW      INFLOW     OUTFLOW
   1  2.1016E+08  1.2341E+06  0.0000E+00  0.0000E+00

         WATER    CONNECTED LAKE
 LAKE     USE         INFLUX
   1   0.0000E+00   0.0000E+00
 --------------------------------------------------------------------------------

 
 SOLVING FOR HEAD 
 ALL LAKES CONVERGED AFTER   2  ITERATIONS
 ALL LAKES CONVERGED AFTER   2  ITERATIONS
 ALL LAKES CONVERGED AFTER   2  ITERATIONS
 ALL LAKES CONVERGED AFTER   2  ITERATIONS
 ALL LAKES CONVERGED AFTER   2  ITERATIONS
 ALL LAKES CONVERGED AFTER   2  ITERATIONS
 ALL LAKES CONVERGED AFTER   2  ITERATIONS
 ALL LAKES CONVERGED AFTER   2  ITERATIONS
 ALL LAKES CONVERGED AFTER   2  ITERATIONS
 ALL LAKES CONVERGED AFTER   2  ITERATIONS
 ALL LAKES CONVERGED AFTER   2  ITERATIONS
 ALL LAKES CONVERGED AFTER   2  ITERATIONS
 ALL LAKES CONVERGED AFTER   2  ITERATIONS
 ALL LAKES CONVERGED AFTER   2  ITERATIONS
 ALL LAKES CONVERGED AFTER   2  ITERATIONS
 ALL LAKES CONVERGED AFTER   2  ITERATIONS
 ALL LAKES CONVERGED AFTER   2  ITERATIONS
 ALL LAKES CONVERGED AFTER   2  ITERATIONS
 ALL LAKES CONVERGED AFTER   2  ITERATIONS
 ALL LAKES CONVERGED AFTER   2  ITERATIONS
 ALL LAKES CONVERGED AFTER   2  ITERATIONS
 ALL LAKES CONVERGED AFTER   2  ITERATIONS
 ALL LAKES CONVERGED AFTER   2  ITERATIONS
 ALL LAKES CONVERGED AFTER   2  ITERATIONS
    24 ITERATIONS FOR TIME STEP  55 IN STRESS PERIOD    1

 MAXIMUM HEAD CHANGE FOR EACH ITERATION:

    HEAD CHANGE   HEAD CHANGE   HEAD CHANGE   HEAD CHANGE   HEAD CHANGE
  LAYER,ROW,COL LAYER,ROW,COL LAYER,ROW,COL LAYER,ROW,COL LAYER,ROW,COL
 ----------------------------------------------------------------------
     0.7894E-01    0.5842E-01    0.5976E-01    0.3179E-01    0.4101E-01
  (  3, 10,  9) (  5,  8, 10) (  5, 10,  8) (  3,  8, 10) (  3, 10,  8)
     0.1782E-01    0.1329E-01    0.8879E-02    0.1147E-01    0.5100E-02
  (  2,  7,  7) (  5, 10,  8) (  3,  8, 10) (  3, 10,  8) (  3,  8, 10)
     0.6032E-02    0.3039E-02    0.3085E-02    0.1563E-02    0.2013E-02
  (  2,  7,  7) (  5,  9,  9) (  5, 10,  8) (  3,  8, 10) (  3, 10,  8)
     0.8766E-03    0.6506E-03    0.4412E-03    0.5531E-03    0.2509E-03
  (  2,  7,  7) (  5, 10,  8) (  3,  8, 10) (  5, 10,  8) (  3,  8, 10)
     0.2996E-03    0.1473E-03    0.1524E-03    0.7832E-04
  (  3,  8,  8) (  4,  7,  8) (  5, 10,  8) (  2,  7,  9)


 HEAD/DRAWDOWN PRINTOUT FLAG = 0     TOTAL BUDGET PRINTOUT FLAG = 0
 CELL-BY-CELL FLOW TERM FLAG = 1

 OUTPUT FLAGS FOR ALL LAYERS ARE THE SAME:
   HEAD    DRAWDOWN  HEAD  DRAWDOWN
 PRINTOUT  PRINTOUT  SAVE    SAVE
 ----------------------------------
     0         0       0       0


     0  LAKE CELLS ARE DRY.

 PERIOD     1     TIME STEP    55     TIME STEP LENGTH  4.6655E+01
 PERIOD TIME  1.5787E+03     TOTAL SIMULATION TIME  1.5787E+03


                 HYDROLOGIC BUDGET SUMMARIES FOR SIMULATED LAKES
     (ALL FLUID FLUXES ARE VOLUMES ADDED TO THE LAKE DURING PRESENT TIME STEP)
     ----------------------------------------------------------------------------------------
 LAKE    STAGE       PRECIP         EVAP         RUNOFF
   1  1.456817E+02  3.382514E+06  3.003439E+06  0.000000E+00

            GROUND WATER            SURFACE WATER
 LAKE    INFLOW     OUTFLOW      INFLOW     OUTFLOW
   1  1.7008E+06  4.1535E+05  0.0000E+00  0.0000E+00

         WATER    CONNECTED LAKE   UPDATED     TIME-STEP          STAGE CHANGE
 LAKE     USE         INFLUX        VOLUME    SURFACE AREA   TIME STEP  CUMULATIVE
   1   0.0000E+00   0.0000E+00   2.6426E+08    6.2500E+06   2.6619E-01  3.5682E+01
 --------------------------------------------------------------------------------



            CUMULATIVE HYDROLOGIC BUDGET SUMMARIES FOR SIMULATED LAKES
     (ALL FLUID FLUXES ARE SUMS OF VOLUMES ADDED TO THE LAKE SINCE INITIAL TIME)
     ---------------------------------------------------------------------------
 LAKE       PRECIP       EVAP       RUNOFF
   1     1.1446E+08  1.0163E+08  0.0000E+00

            GROUND WATER            SURFACE WATER
 LAKE    INFLOW     OUTFLOW      INFLOW     OUTFLOW
   1  2.1186E+08  1.6494E+06  0.0000E+00  0.0000E+00

         WATER    CONNECTED LAKE
 LAKE     USE         INFLUX
   1   0.0000E+00   0.0000E+00
 --------------------------------------------------------------------------------

 
 SOLVING FOR HEAD 
 ALL LAKES CONVERGED AFTER   2  ITERATIONS
 ALL LAKES CONVERGED AFTER   2  ITERATIONS
 ALL LAKES CONVERGED AFTER   2  ITERATIONS
 ALL LAKES CONVERGED AFTER   2  ITERATIONS
 ALL LAKES CONVERGED AFTER   2  ITERATIONS
 ALL LAKES CONVERGED AFTER   2  ITERATIONS
 ALL LAKES CONVERGED AFTER   2  ITERATIONS
 ALL LAKES CONVERGED AFTER   2  ITERATIONS
 ALL LAKES CONVERGED AFTER   2  ITERATIONS
 ALL LAKES CONVERGED AFTER   2  ITERATIONS
 ALL LAKES CONVERGED AFTER   2  ITERATIONS
 ALL LAKES CONVERGED AFTER   2  ITERATIONS
 ALL LAKES CONVERGED AFTER   2  ITERATIONS
 ALL LAKES CONVERGED AFTER   2  ITERATIONS
 ALL LAKES CONVERGED AFTER   2  ITERATIONS
 ALL LAKES CONVERGED AFTER   2  ITERATIONS
 ALL LAKES CONVERGED AFTER   2  ITERATIONS
 ALL LAKES CONVERGED AFTER   2  ITERATIONS
 ALL LAKES CONVERGED AFTER   2  ITERATIONS
 ALL LAKES CONVERGED AFTER   2  ITERATIONS
 ALL LAKES CONVERGED AFTER   2  ITERATIONS
 ALL LAKES CONVERGED AFTER   2  ITERATIONS
 ALL LAKES CONVERGED AFTER   2  ITERATIONS
 ALL LAKES CONVERGED AFTER   2  ITERATIONS
    24 ITERATIONS FOR TIME STEP  56 IN STRESS PERIOD    1

 MAXIMUM HEAD CHANGE FOR EACH ITERATION:

    HEAD CHANGE   HEAD CHANGE   HEAD CHANGE   HEAD CHANGE   HEAD CHANGE
  LAYER,ROW,COL LAYER,ROW,COL LAYER,ROW,COL LAYER,ROW,COL LAYER,ROW,COL
 ----------------------------------------------------------------------
     0.7216E-01    0.5367E-01    0.5511E-01    0.2952E-01    0.3814E-01
  (  3, 10,  9) (  5,  8, 10) (  5, 10,  8) (  3,  8, 10) (  3, 10,  8)
     0.1668E-01    0.1251E-01    0.8395E-02    0.1087E-01    0.4869E-02
  (  2,  7,  7) (  5, 10,  8) (  3,  8, 10) (  3, 10,  8) (  3,  8, 10)
     0.5768E-02    0.2926E-02    0.2976E-02    0.1522E-02    0.1953E-02
  (  2,  7,  7) (  5,  9,  9) (  5, 10,  8) (  3,  8, 10) (  3, 10,  8)
     0.8567E-03    0.6384E-03    0.4319E-03    0.5520E-03    0.2509E-03
  (  2,  7,  7) (  5, 10,  8) (  3,  8, 10) (  4, 10,  8) (  3,  8, 10)
     0.2995E-03    0.1552E-03    0.1533E-03    0.8064E-04
  (  3,  8,  8) (  4, 10, 11) (  5, 10,  8) (  3,  8, 10)


 HEAD/DRAWDOWN PRINTOUT FLAG = 0     TOTAL BUDGET PRINTOUT FLAG = 0
 CELL-BY-CELL FLOW TERM FLAG = 1

 OUTPUT FLAGS FOR ALL LAYERS ARE THE SAME:
   HEAD    DRAWDOWN  HEAD  DRAWDOWN
 PRINTOUT  PRINTOUT  SAVE    SAVE
 ----------------------------------
     0         0       0       0


     0  LAKE CELLS ARE DRY.

 PERIOD     1     TIME STEP    56     TIME STEP LENGTH  4.7588E+01
 PERIOD TIME  1.6263E+03     TOTAL SIMULATION TIME  1.6263E+03


                 HYDROLOGIC BUDGET SUMMARIES FOR SIMULATED LAKES
     (ALL FLUID FLUXES ARE VOLUMES ADDED TO THE LAKE DURING PRESENT TIME STEP)
     ----------------------------------------------------------------------------------------
 LAKE    STAGE       PRECIP         EVAP         RUNOFF
   1  1.459279E+02  3.450164E+06  3.063508E+06  0.000000E+00

            GROUND WATER            SURFACE WATER
 LAKE    INFLOW     OUTFLOW      INFLOW     OUTFLOW
   1  1.6327E+06  4.7945E+05  0.0000E+00  0.0000E+00

         WATER    CONNECTED LAKE   UPDATED     TIME-STEP          STAGE CHANGE
 LAKE     USE         INFLUX        VOLUME    SURFACE AREA   TIME STEP  CUMULATIVE
   1   0.0000E+00   0.0000E+00   2.6580E+08    6.2500E+06   2.4627E-01  3.5928E+01
 --------------------------------------------------------------------------------



            CUMULATIVE HYDROLOGIC BUDGET SUMMARIES FOR SIMULATED LAKES
     (ALL FLUID FLUXES ARE SUMS OF VOLUMES ADDED TO THE LAKE SINCE INITIAL TIME)
     ---------------------------------------------------------------------------
 LAKE       PRECIP       EVAP       RUNOFF
   1     1.1791E+08  1.0469E+08  0.0000E+00

            GROUND WATER            SURFACE WATER
 LAKE    INFLOW     OUTFLOW      INFLOW     OUTFLOW
   1  2.1349E+08  2.1289E+06  0.0000E+00  0.0000E+00

         WATER    CONNECTED LAKE
 LAKE     USE         INFLUX
   1   0.0000E+00   0.0000E+00
 --------------------------------------------------------------------------------

 
 SOLVING FOR HEAD 
 ALL LAKES CONVERGED AFTER   2  ITERATIONS
 ALL LAKES CONVERGED AFTER   2  ITERATIONS
 ALL LAKES CONVERGED AFTER   2  ITERATIONS
 ALL LAKES CONVERGED AFTER   2  ITERATIONS
 ALL LAKES CONVERGED AFTER   2  ITERATIONS
 ALL LAKES CONVERGED AFTER   2  ITERATIONS
 ALL LAKES CONVERGED AFTER   2  ITERATIONS
 ALL LAKES CONVERGED AFTER   2  ITERATIONS
 ALL LAKES CONVERGED AFTER   2  ITERATIONS
 ALL LAKES CONVERGED AFTER   2  ITERATIONS
 ALL LAKES CONVERGED AFTER   2  ITERATIONS
 ALL LAKES CONVERGED AFTER   2  ITERATIONS
 ALL LAKES CONVERGED AFTER   2  ITERATIONS
 ALL LAKES CONVERGED AFTER   2  ITERATIONS
 ALL LAKES CONVERGED AFTER   2  ITERATIONS
 ALL LAKES CONVERGED AFTER   2  ITERATIONS
 ALL LAKES CONVERGED AFTER   2  ITERATIONS
 ALL LAKES CONVERGED AFTER   2  ITERATIONS
 ALL LAKES CONVERGED AFTER   2  ITERATIONS
 ALL LAKES CONVERGED AFTER   2  ITERATIONS
 ALL LAKES CONVERGED AFTER   2  ITERATIONS
 ALL LAKES CONVERGED AFTER   2  ITERATIONS
 ALL LAKES CONVERGED AFTER   2  ITERATIONS
 ALL LAKES CONVERGED AFTER   2  ITERATIONS
    24 ITERATIONS FOR TIME STEP  57 IN STRESS PERIOD    1

 MAXIMUM HEAD CHANGE FOR EACH ITERATION:

    HEAD CHANGE   HEAD CHANGE   HEAD CHANGE   HEAD CHANGE   HEAD CHANGE
  LAYER,ROW,COL LAYER,ROW,COL LAYER,ROW,COL LAYER,ROW,COL LAYER,ROW,COL
 ----------------------------------------------------------------------
     0.6584E-01    0.4921E-01    0.5070E-01    0.2735E-01    0.3539E-01
  (  3, 10,  9) (  5,  8, 10) (  5, 10,  8) (  3,  8, 10) (  3, 10,  8)
     0.1558E-01    0.1174E-01    0.7930E-02    0.1029E-01    0.4638E-02
  (  2,  7,  7) (  5, 10,  8) (  3,  8, 10) (  3, 10,  8) (  3,  8, 10)
     0.5494E-02    0.2802E-02    0.2862E-02    0.1472E-02    0.1894E-02
  (  3,  8,  8) (  5,  9,  9) (  5, 10,  8) (  3,  8, 10) (  3, 10,  8)
     0.8371E-03    0.6266E-03    0.4215E-03    0.5521E-03    0.2570E-03
  (  2,  7,  7) (  5, 10,  8) (  3,  8, 10) (  3, 10,  8) (  2,  8, 11)
     0.2992E-03    0.1538E-03    0.1468E-03    0.8062E-04
  (  2,  7,  7) (  5,  9,  9) (  5, 10,  8) (  3,  8, 10)


 HEAD/DRAWDOWN PRINTOUT FLAG = 0     TOTAL BUDGET PRINTOUT FLAG = 0
 CELL-BY-CELL FLOW TERM FLAG = 1

 OUTPUT FLAGS FOR ALL LAYERS ARE THE SAME:
   HEAD    DRAWDOWN  HEAD  DRAWDOWN
 PRINTOUT  PRINTOUT  SAVE    SAVE
 ----------------------------------
     0         0       0       0


     0  LAKE CELLS ARE DRY.

 PERIOD     1     TIME STEP    57     TIME STEP LENGTH  4.8540E+01
 PERIOD TIME  1.6749E+03     TOTAL SIMULATION TIME  1.6749E+03


                 HYDROLOGIC BUDGET SUMMARIES FOR SIMULATED LAKES
     (ALL FLUID FLUXES ARE VOLUMES ADDED TO THE LAKE DURING PRESENT TIME STEP)
     ----------------------------------------------------------------------------------------
 LAKE    STAGE       PRECIP         EVAP         RUNOFF
   1  1.461553E+02  3.519167E+06  3.124778E+06  0.000000E+00

            GROUND WATER            SURFACE WATER
 LAKE    INFLOW     OUTFLOW      INFLOW     OUTFLOW
   1  1.5689E+06  5.4177E+05  0.0000E+00  0.0000E+00

         WATER    CONNECTED LAKE   UPDATED     TIME-STEP          STAGE CHANGE
 LAKE     USE         INFLUX        VOLUME    SURFACE AREA   TIME STEP  CUMULATIVE
   1   0.0000E+00   0.0000E+00   2.6722E+08    6.2500E+06   2.2731E-01  3.6155E+01
 --------------------------------------------------------------------------------



            CUMULATIVE HYDROLOGIC BUDGET SUMMARIES FOR SIMULATED LAKES
     (ALL FLUID FLUXES ARE SUMS OF VOLUMES ADDED TO THE LAKE SINCE INITIAL TIME)
     ---------------------------------------------------------------------------
 LAKE       PRECIP       EVAP       RUNOFF
   1     1.2143E+08  1.0782E+08  0.0000E+00

            GROUND WATER            SURFACE WATER
 LAKE    INFLOW     OUTFLOW      INFLOW     OUTFLOW
   1  2.1506E+08  2.6707E+06  0.0000E+00  0.0000E+00

         WATER    CONNECTED LAKE
 LAKE     USE         INFLUX
   1   0.0000E+00   0.0000E+00
 --------------------------------------------------------------------------------

 
 SOLVING FOR HEAD 
 ALL LAKES CONVERGED AFTER   2  ITERATIONS
 ALL LAKES CONVERGED AFTER   2  ITERATIONS
 ALL LAKES CONVERGED AFTER   2  ITERATIONS
 ALL LAKES CONVERGED AFTER   2  ITERATIONS
 ALL LAKES CONVERGED AFTER   2  ITERATIONS
 ALL LAKES CONVERGED AFTER   2  ITERATIONS
 ALL LAKES CONVERGED AFTER   2  ITERATIONS
 ALL LAKES CONVERGED AFTER   2  ITERATIONS
 ALL LAKES CONVERGED AFTER   2  ITERATIONS
 ALL LAKES CONVERGED AFTER   2  ITERATIONS
 ALL LAKES CONVERGED AFTER   2  ITERATIONS
 ALL LAKES CONVERGED AFTER   2  ITERATIONS
 ALL LAKES CONVERGED AFTER   2  ITERATIONS
 ALL LAKES CONVERGED AFTER   2  ITERATIONS
 ALL LAKES CONVERGED AFTER   2  ITERATIONS
 ALL LAKES CONVERGED AFTER   2  ITERATIONS
 ALL LAKES CONVERGED AFTER   2  ITERATIONS
 ALL LAKES CONVERGED AFTER   2  ITERATIONS
 ALL LAKES CONVERGED AFTER   2  ITERATIONS
 ALL LAKES CONVERGED AFTER   2  ITERATIONS
 ALL LAKES CONVERGED AFTER   2  ITERATIONS
 ALL LAKES CONVERGED AFTER   2  ITERATIONS
 ALL LAKES CONVERGED AFTER   2  ITERATIONS
 ALL LAKES CONVERGED AFTER   2  ITERATIONS
    24 ITERATIONS FOR TIME STEP  58 IN STRESS PERIOD    1

 MAXIMUM HEAD CHANGE FOR EACH ITERATION:

    HEAD CHANGE   HEAD CHANGE   HEAD CHANGE   HEAD CHANGE   HEAD CHANGE
  LAYER,ROW,COL LAYER,ROW,COL LAYER,ROW,COL LAYER,ROW,COL LAYER,ROW,COL
 ----------------------------------------------------------------------
     0.5991E-01    0.4501E-01    0.4654E-01    0.2527E-01    0.3276E-01
  (  3, 10,  9) (  5,  8, 10) (  5, 10,  8) (  3,  8, 10) (  3, 10,  8)
     0.1451E-01    0.1098E-01    0.7465E-02    0.9700E-02    0.4407E-02
  (  2,  7,  7) (  5, 10,  8) (  3,  8, 10) (  3, 10,  8) (  3,  8, 10)
     0.5225E-02    0.2679E-02    0.2748E-02    0.1422E-02    0.1834E-02
  (  2,  7,  7) (  5,  9,  9) (  5, 10,  8) (  3,  8, 10) (  3, 10,  8)
     0.8096E-03    0.6141E-03    0.4209E-03    0.5420E-03    0.2507E-03
  (  2,  7,  7) (  5, 10,  8) (  3,  8, 10) (  3, 10,  8) (  3,  8, 10)
     0.2914E-03    0.1535E-03    0.1559E-03    0.7889E-04
  (  2,  7,  7) (  5,  9,  9) (  5, 10,  8) (  2,  8, 11)


 HEAD/DRAWDOWN PRINTOUT FLAG = 0     TOTAL BUDGET PRINTOUT FLAG = 0
 CELL-BY-CELL FLOW TERM FLAG = 1

 OUTPUT FLAGS FOR ALL LAYERS ARE THE SAME:
   HEAD    DRAWDOWN  HEAD  DRAWDOWN
 PRINTOUT  PRINTOUT  SAVE    SAVE
 ----------------------------------
     0         0       0       0


     0  LAKE CELLS ARE DRY.

 PERIOD     1     TIME STEP    58     TIME STEP LENGTH  4.9511E+01
 PERIOD TIME  1.7244E+03     TOTAL SIMULATION TIME  1.7244E+03


                 HYDROLOGIC BUDGET SUMMARIES FOR SIMULATED LAKES
     (ALL FLUID FLUXES ARE VOLUMES ADDED TO THE LAKE DURING PRESENT TIME STEP)
     ----------------------------------------------------------------------------------------
 LAKE    STAGE       PRECIP         EVAP         RUNOFF
   1  1.463646E+02  3.589550E+06  3.187273E+06  0.000000E+00

            GROUND WATER            SURFACE WATER
 LAKE    INFLOW     OUTFLOW      INFLOW     OUTFLOW
   1  1.5121E+06  6.0504E+05  0.0000E+00  0.0000E+00

         WATER    CONNECTED LAKE   UPDATED     TIME-STEP          STAGE CHANGE
 LAKE     USE         INFLUX        VOLUME    SURFACE AREA   TIME STEP  CUMULATIVE
   1   0.0000E+00   0.0000E+00   2.6853E+08    6.2500E+06   2.0934E-01  3.6365E+01
 --------------------------------------------------------------------------------



            CUMULATIVE HYDROLOGIC BUDGET SUMMARIES FOR SIMULATED LAKES
     (ALL FLUID FLUXES ARE SUMS OF VOLUMES ADDED TO THE LAKE SINCE INITIAL TIME)
     ---------------------------------------------------------------------------
 LAKE       PRECIP       EVAP       RUNOFF
   1     1.2502E+08  1.1101E+08  0.0000E+00

            GROUND WATER            SURFACE WATER
 LAKE    INFLOW     OUTFLOW      INFLOW     OUTFLOW
   1  2.1657E+08  3.2757E+06  0.0000E+00  0.0000E+00

         WATER    CONNECTED LAKE
 LAKE     USE         INFLUX
   1   0.0000E+00   0.0000E+00
 --------------------------------------------------------------------------------

 
 SOLVING FOR HEAD 
 ALL LAKES CONVERGED AFTER   2  ITERATIONS
 ALL LAKES CONVERGED AFTER   2  ITERATIONS
 ALL LAKES CONVERGED AFTER   2  ITERATIONS
 ALL LAKES CONVERGED AFTER   2  ITERATIONS
 ALL LAKES CONVERGED AFTER   2  ITERATIONS
 ALL LAKES CONVERGED AFTER   2  ITERATIONS
 ALL LAKES CONVERGED AFTER   2  ITERATIONS
 ALL LAKES CONVERGED AFTER   2  ITERATIONS
 ALL LAKES CONVERGED AFTER   2  ITERATIONS
 ALL LAKES CONVERGED AFTER   2  ITERATIONS
 ALL LAKES CONVERGED AFTER   2  ITERATIONS
 ALL LAKES CONVERGED AFTER   2  ITERATIONS
 ALL LAKES CONVERGED AFTER   2  ITERATIONS
 ALL LAKES CONVERGED AFTER   2  ITERATIONS
 ALL LAKES CONVERGED AFTER   2  ITERATIONS
 ALL LAKES CONVERGED AFTER   2  ITERATIONS
 ALL LAKES CONVERGED AFTER   2  ITERATIONS
 ALL LAKES CONVERGED AFTER   2  ITERATIONS
 ALL LAKES CONVERGED AFTER   2  ITERATIONS
 ALL LAKES CONVERGED AFTER   2  ITERATIONS
 ALL LAKES CONVERGED AFTER   2  ITERATIONS
 ALL LAKES CONVERGED AFTER   2  ITERATIONS
 ALL LAKES CONVERGED AFTER   2  ITERATIONS
 ALL LAKES CONVERGED AFTER   2  ITERATIONS
    24 ITERATIONS FOR TIME STEP  59 IN STRESS PERIOD    1

 MAXIMUM HEAD CHANGE FOR EACH ITERATION:

    HEAD CHANGE   HEAD CHANGE   HEAD CHANGE   HEAD CHANGE   HEAD CHANGE
  LAYER,ROW,COL LAYER,ROW,COL LAYER,ROW,COL LAYER,ROW,COL LAYER,ROW,COL
 ----------------------------------------------------------------------
     0.5442E-01    0.4108E-01    0.4263E-01    0.2330E-01    0.3025E-01
  (  3, 10,  9) (  5,  8, 10) (  5, 10,  8) (  3,  8, 10) (  3, 10,  8)
     0.1350E-01    0.1026E-01    0.7011E-02    0.9129E-02    0.4166E-02
  (  2,  7,  7) (  5, 10,  8) (  3,  8, 10) (  3, 10,  8) (  3,  8, 10)
     0.4955E-02    0.2555E-02    0.2625E-02    0.1371E-02    0.1774E-02
  (  2,  7,  7) (  5,  9,  9) (  5, 10,  8) (  3,  8, 10) (  3, 10,  8)
     0.7892E-03    0.5942E-03    0.4111E-03    0.5327E-03    0.2408E-03
  (  2,  7,  7) (  5,  9,  8) (  3,  8, 10) (  3, 10,  8) (  3,  8, 10)
     0.2905E-03    0.1459E-03    0.1522E-03    0.8042E-04
  (  3,  8,  8) (  4, 10, 11) (  5, 10,  8) (  3,  8, 10)


 HEAD/DRAWDOWN PRINTOUT FLAG = 0     TOTAL BUDGET PRINTOUT FLAG = 0
 CELL-BY-CELL FLOW TERM FLAG = 1

 OUTPUT FLAGS FOR ALL LAYERS ARE THE SAME:
   HEAD    DRAWDOWN  HEAD  DRAWDOWN
 PRINTOUT  PRINTOUT  SAVE    SAVE
 ----------------------------------
     0         0       0       0


     0  LAKE CELLS ARE DRY.

 PERIOD     1     TIME STEP    59     TIME STEP LENGTH  5.0501E+01
 PERIOD TIME  1.7749E+03     TOTAL SIMULATION TIME  1.7749E+03


                 HYDROLOGIC BUDGET SUMMARIES FOR SIMULATED LAKES
     (ALL FLUID FLUXES ARE VOLUMES ADDED TO THE LAKE DURING PRESENT TIME STEP)
     ----------------------------------------------------------------------------------------
 LAKE    STAGE       PRECIP         EVAP         RUNOFF
   1  1.465570E+02  3.661341E+06  3.251018E+06  0.000000E+00

            GROUND WATER            SURFACE WATER
 LAKE    INFLOW     OUTFLOW      INFLOW     OUTFLOW
   1  1.4679E+06  6.7438E+05  0.0000E+00  0.0000E+00

         WATER    CONNECTED LAKE   UPDATED     TIME-STEP          STAGE CHANGE
 LAKE     USE         INFLUX        VOLUME    SURFACE AREA   TIME STEP  CUMULATIVE
   1   0.0000E+00   0.0000E+00   2.6973E+08    6.2500E+06   1.9246E-01  3.6557E+01
 --------------------------------------------------------------------------------



            CUMULATIVE HYDROLOGIC BUDGET SUMMARIES FOR SIMULATED LAKES
     (ALL FLUID FLUXES ARE SUMS OF VOLUMES ADDED TO THE LAKE SINCE INITIAL TIME)
     ---------------------------------------------------------------------------
 LAKE       PRECIP       EVAP       RUNOFF
   1     1.2868E+08  1.1426E+08  0.0000E+00

            GROUND WATER            SURFACE WATER
 LAKE    INFLOW     OUTFLOW      INFLOW     OUTFLOW
   1  2.1804E+08  3.9501E+06  0.0000E+00  0.0000E+00

         WATER    CONNECTED LAKE
 LAKE     USE         INFLUX
   1   0.0000E+00   0.0000E+00
 --------------------------------------------------------------------------------

 
 SOLVING FOR HEAD 
 ALL LAKES CONVERGED AFTER   2  ITERATIONS
 ALL LAKES CONVERGED AFTER   2  ITERATIONS
 ALL LAKES CONVERGED AFTER   2  ITERATIONS
 ALL LAKES CONVERGED AFTER   2  ITERATIONS
 ALL LAKES CONVERGED AFTER   2  ITERATIONS
 ALL LAKES CONVERGED AFTER   2  ITERATIONS
 ALL LAKES CONVERGED AFTER   2  ITERATIONS
 ALL LAKES CONVERGED AFTER   2  ITERATIONS
 ALL LAKES CONVERGED AFTER   2  ITERATIONS
 ALL LAKES CONVERGED AFTER   2  ITERATIONS
 ALL LAKES CONVERGED AFTER   2  ITERATIONS
 ALL LAKES CONVERGED AFTER   2  ITERATIONS
 ALL LAKES CONVERGED AFTER   2  ITERATIONS
 ALL LAKES CONVERGED AFTER   2  ITERATIONS
 ALL LAKES CONVERGED AFTER   2  ITERATIONS
 ALL LAKES CONVERGED AFTER   2  ITERATIONS
 ALL LAKES CONVERGED AFTER   2  ITERATIONS
 ALL LAKES CONVERGED AFTER   2  ITERATIONS
 ALL LAKES CONVERGED AFTER   2  ITERATIONS
 ALL LAKES CONVERGED AFTER   2  ITERATIONS
 ALL LAKES CONVERGED AFTER   2  ITERATIONS
 ALL LAKES CONVERGED AFTER   2  ITERATIONS
 ALL LAKES CONVERGED AFTER   2  ITERATIONS
 ALL LAKES CONVERGED AFTER   2  ITERATIONS
    24 ITERATIONS FOR TIME STEP  60 IN STRESS PERIOD    1

 MAXIMUM HEAD CHANGE FOR EACH ITERATION:

    HEAD CHANGE   HEAD CHANGE   HEAD CHANGE   HEAD CHANGE   HEAD CHANGE
  LAYER,ROW,COL LAYER,ROW,COL LAYER,ROW,COL LAYER,ROW,COL LAYER,ROW,COL
 ----------------------------------------------------------------------
     0.4932E-01    0.3741E-01    0.3895E-01    0.2144E-01    0.2786E-01
  (  3, 10,  9) (  5,  8, 10) (  5, 10,  8) (  3,  8, 10) (  3, 10,  8)
     0.1251E-01    0.9562E-02    0.6558E-02    0.8558E-02    0.3935E-02
  (  2,  7,  7) (  5, 10,  8) (  3,  8, 10) (  3, 10,  8) (  3,  8, 10)
     0.4683E-02    0.2432E-02    0.2502E-02    0.1321E-02    0.1704E-02
  (  2,  7,  7) (  5,  9,  9) (  5, 10,  8) (  3,  8, 10) (  3, 10,  8)
     0.7619E-03    0.5883E-03    0.4026E-03    0.5152E-03    0.2408E-03
  (  2,  7,  7) (  5, 10,  8) (  2,  9, 11) (  4, 10,  8) (  3,  8, 10)
     0.2904E-03    0.1548E-03    0.1528E-03    0.8064E-04
  (  3,  8,  8) (  4, 10, 11) (  5, 10,  8) (  3,  8, 10)


 HEAD/DRAWDOWN PRINTOUT FLAG = 1     TOTAL BUDGET PRINTOUT FLAG = 1
 CELL-BY-CELL FLOW TERM FLAG = 1

 OUTPUT FLAGS FOR EACH LAYER:
          HEAD    DRAWDOWN  HEAD  DRAWDOWN
 LAYER  PRINTOUT  PRINTOUT  SAVE    SAVE
 -----------------------------------------
    1       0         0       0       0
    2       0         0       0       0
    3       0         0       0       0
    4       0         0       0       0
    5       1         0       0       0


     0  LAKE CELLS ARE DRY.

 PERIOD     1     TIME STEP    60     TIME STEP LENGTH  5.1511E+01
 PERIOD TIME  1.8264E+03     TOTAL SIMULATION TIME  1.8264E+03


                 HYDROLOGIC BUDGET SUMMARIES FOR SIMULATED LAKES
     (ALL FLUID FLUXES ARE VOLUMES ADDED TO THE LAKE DURING PRESENT TIME STEP)
     ----------------------------------------------------------------------------------------
 LAKE    STAGE       PRECIP         EVAP         RUNOFF
   1  1.467336E+02  3.734568E+06  3.316039E+06  0.000000E+00

            GROUND WATER            SURFACE WATER
 LAKE    INFLOW     OUTFLOW      INFLOW     OUTFLOW
   1  1.4293E+06  7.4358E+05  0.0000E+00  0.0000E+00

         WATER    CONNECTED LAKE   UPDATED     TIME-STEP          STAGE CHANGE
 LAKE     USE         INFLUX        VOLUME    SURFACE AREA   TIME STEP  CUMULATIVE
   1   0.0000E+00   0.0000E+00   2.7083E+08    6.2500E+06   1.7655E-01  3.6734E+01
 --------------------------------------------------------------------------------



            CUMULATIVE HYDROLOGIC BUDGET SUMMARIES FOR SIMULATED LAKES
     (ALL FLUID FLUXES ARE SUMS OF VOLUMES ADDED TO THE LAKE SINCE INITIAL TIME)
     ---------------------------------------------------------------------------
 LAKE       PRECIP       EVAP       RUNOFF
   1     1.3241E+08  1.1757E+08  0.0000E+00

            GROUND WATER            SURFACE WATER
 LAKE    INFLOW     OUTFLOW      INFLOW     OUTFLOW
   1  2.1947E+08  4.6937E+06  0.0000E+00  0.0000E+00

         WATER    CONNECTED LAKE
 LAKE     USE         INFLUX
   1   0.0000E+00   0.0000E+00
 --------------------------------------------------------------------------------

1
              HEAD IN LAYER   5 AT END OF TIME STEP  60 IN STRESS PERIOD    1
  ---------------------------------------------------------------------------

          1      2      3      4      5      6      7      8      9     10
 .........................................................................
   1   160.0  158.9  157.3  155.8  154.2  152.7  151.5  150.8  150.0  149.2
   2   160.0  158.6  156.7  155.0  153.4  151.8  150.7  149.9  149.1  148.3
   3   160.0  158.3  156.2  154.4  152.7  151.0  149.8  149.1  148.3  147.5
   4   160.0  158.2  156.0  154.1  152.3  150.5  149.3  148.5  147.8  147.0
   5   160.0  158.2  155.9  153.8  151.9  150.1  148.9  148.1  147.4  146.7
   6   160.0  158.2  155.8  153.7  151.7  149.7  148.2  147.6  147.0  146.5
   7   160.0  158.1  155.7  153.6  151.5  149.2  146.8  146.7  146.7  146.6
   8   160.0  158.1  155.7  153.6  151.4  149.0  146.7  146.6  146.6  146.6
   9   160.0  158.1  155.7  153.6  151.4  149.0  146.7  146.6  146.6  146.6
  10   160.0  158.1  155.7  153.6  151.4  149.0  146.7  146.6  146.6  146.6
  11   160.0  158.1  155.7  153.6  151.5  149.2  146.8  146.7  146.7  146.6
  12   160.0  158.2  155.8  153.7  151.7  149.7  148.2  147.6  147.0  146.5
  13   160.0  158.2  155.9  153.8  151.9  150.1  148.9  148.1  147.4  146.7
  14   160.0  158.2  156.0  154.1  152.3  150.5  149.3  148.5  147.8  147.0
  15   160.0  158.3  156.2  154.4  152.7  151.0  149.8  149.1  148.3  147.5
  16   160.0  158.6  156.7  155.0  153.4  151.8  150.7  149.9  149.1  148.3
  17   160.0  158.9  157.3  155.8  154.2  152.7  151.5  150.8  150.0  149.2
1
              HEAD IN LAYER   5 AT END OF TIME STEP  60 IN STRESS PERIOD    1
  ---------------------------------------------------------------------------

         11     12     13     14     15     16     17
 ....................................................
   1   148.5  147.3  145.8  144.2  142.7  141.1  140.0
   2   147.5  146.4  144.9  143.4  141.9  140.6  140.0
   3   146.7  145.6  144.1  142.6  141.3  140.3  140.0
   4   146.3  145.2  143.7  142.3  141.1  140.1  140.0
   5   146.0  144.9  143.5  142.1  140.9  140.1  140.0
   6   146.0  144.9  143.4  142.0  140.9  140.1  140.0
   7   146.6  145.0  143.4  142.0  140.8  140.0  140.0
   8   146.6  145.0  143.4  142.0  140.8  140.0  140.0
   9   146.6  145.0  143.4  142.0  140.8  140.0  140.0
  10   146.6  145.0  143.4  142.0  140.8  140.0  140.0
  11   146.6  145.0  143.4  142.0  140.8  140.0  140.0
  12   146.0  144.9  143.4  142.0  140.9  140.1  140.0
  13   146.0  144.9  143.5  142.1  140.9  140.1  140.0
  14   146.3  145.2  143.7  142.3  141.1  140.1  140.0
  15   146.7  145.6  144.1  142.6  141.3  140.3  140.0
  16   147.5  146.4  144.9  143.4  141.9  140.6  140.0
  17   148.5  147.3  145.8  144.2  142.7  141.1  140.0
1
  VOLUMETRIC BUDGET FOR ENTIRE MODEL AT END OF TIME STEP 60 IN STRESS PERIOD   1
  ------------------------------------------------------------------------------

     CUMULATIVE VOLUMES      L**3       RATES FOR THIS TIME STEP      L**3/T
     ------------------                 ------------------------

           IN:                                      IN:
           ---                                      ---
             STORAGE =       32205.5820               STORAGE =           0.0000
       CONSTANT HEAD =   759323072.0000         CONSTANT HEAD =      170805.9375
                  ET =           0.0000                    ET =           0.0000
            RECHARGE =  3177918976.0000              RECHARGE =     1740000.0000
     SPECIFIED FLOWS =           0.0000       SPECIFIED FLOWS =           0.0000
       LAKE  SEEPAGE =     4693659.5000         LAKE  SEEPAGE =       14435.2314

            TOTAL IN =  3941967872.0000              TOTAL IN =     1925241.1250

          OUT:                                     OUT:
          ----                                     ----
             STORAGE =  1005243968.0000               STORAGE =       13875.0703
       CONSTANT HEAD =     8864364.0000         CONSTANT HEAD =        8282.2559
                  ET =  2708355328.0000                    ET =     1875307.7500
            RECHARGE =           0.0000              RECHARGE =           0.0000
     SPECIFIED FLOWS =           0.0000       SPECIFIED FLOWS =           0.0000
       LAKE  SEEPAGE =   219471344.0000         LAKE  SEEPAGE =       27748.0820

           TOTAL OUT =  3941935104.0000             TOTAL OUT =     1925213.1250

            IN - OUT =       32768.0000              IN - OUT =          28.0000

 PERCENT DISCREPANCY =           0.00     PERCENT DISCREPANCY =           0.00






          TIME SUMMARY AT END OF TIME STEP  60 IN STRESS PERIOD    1
                    SECONDS     MINUTES      HOURS       DAYS        YEARS
                    -----------------------------------------------------------
   TIME STEP LENGTH 4.45058E+06  74176.      1236.3      51.511     0.14103    
 STRESS PERIOD TIME 1.57800E+08 2.63000E+06  43833.      1826.4      5.0004    
         TOTAL TIME 1.57800E+08 2.63000E+06  43833.      1826.4      5.0004    
1
 
 SOLVING FOR HEAD 
 ALL LAKES CONVERGED AFTER   2  ITERATIONS
 ALL LAKES CONVERGED AFTER   2  ITERATIONS
 ALL LAKES CONVERGED AFTER   2  ITERATIONS
 ALL LAKES CONVERGED AFTER   2  ITERATIONS
 ALL LAKES CONVERGED AFTER   2  ITERATIONS
 ALL LAKES CONVERGED AFTER   2  ITERATIONS
 ALL LAKES CONVERGED AFTER   2  ITERATIONS
 ALL LAKES CONVERGED AFTER   2  ITERATIONS
 ALL LAKES CONVERGED AFTER   2  ITERATIONS
 ALL LAKES CONVERGED AFTER   2  ITERATIONS
 ALL LAKES CONVERGED AFTER   2  ITERATIONS
 ALL LAKES CONVERGED AFTER   2  ITERATIONS
 ALL LAKES CONVERGED AFTER   2  ITERATIONS
 ALL LAKES CONVERGED AFTER   2  ITERATIONS
 ALL LAKES CONVERGED AFTER   2  ITERATIONS
 ALL LAKES CONVERGED AFTER   2  ITERATIONS
 ALL LAKES CONVERGED AFTER   2  ITERATIONS
 ALL LAKES CONVERGED AFTER   2  ITERATIONS
 ALL LAKES CONVERGED AFTER   2  ITERATIONS
 ALL LAKES CONVERGED AFTER   2  ITERATIONS
 ALL LAKES CONVERGED AFTER   2  ITERATIONS
 ALL LAKES CONVERGED AFTER   2  ITERATIONS
 ALL LAKES CONVERGED AFTER   2  ITERATIONS
 ALL LAKES CONVERGED AFTER   2  ITERATIONS
    24 ITERATIONS FOR TIME STEP  61 IN STRESS PERIOD    1

 MAXIMUM HEAD CHANGE FOR EACH ITERATION:

    HEAD CHANGE   HEAD CHANGE   HEAD CHANGE   HEAD CHANGE   HEAD CHANGE
  LAYER,ROW,COL LAYER,ROW,COL LAYER,ROW,COL LAYER,ROW,COL LAYER,ROW,COL
 ----------------------------------------------------------------------
     0.4460E-01    0.3398E-01    0.3550E-01    0.1967E-01    0.2561E-01
  (  3, 10,  9) (  5,  8, 10) (  5, 10,  8) (  3,  8, 10) (  3, 10,  8)
     0.1157E-01    0.8883E-02    0.6125E-02    0.8006E-02    0.3714E-02
  (  2,  7,  7) (  5, 10,  8) (  3,  8, 10) (  3, 10,  8) (  3,  8, 10)
     0.4420E-02    0.2299E-02    0.2384E-02    0.1260E-02    0.1634E-02
  (  2,  7,  7) (  5,  9,  9) (  5, 10,  8) (  3,  8, 10) (  3, 10,  8)
     0.7410E-03    0.5661E-03    0.3903E-03    0.5041E-03    0.2375E-03
  (  2,  7,  7) (  5, 10,  8) (  3,  8, 10) (  3, 10,  8) (  2,  8, 11)
     0.2826E-03    0.1436E-03    0.1520E-03    0.8064E-04
  (  2,  7,  7) (  5,  9,  9) (  5, 10,  8) (  3,  8, 10)


 HEAD/DRAWDOWN PRINTOUT FLAG = 0     TOTAL BUDGET PRINTOUT FLAG = 0
 CELL-BY-CELL FLOW TERM FLAG = 1

 OUTPUT FLAGS FOR ALL LAYERS ARE THE SAME:
   HEAD    DRAWDOWN  HEAD  DRAWDOWN
 PRINTOUT  PRINTOUT  SAVE    SAVE
 ----------------------------------
     0         0       0       0


     0  LAKE CELLS ARE DRY.

 PERIOD     1     TIME STEP    61     TIME STEP LENGTH  5.2542E+01
 PERIOD TIME  1.8789E+03     TOTAL SIMULATION TIME  1.8789E+03


                 HYDROLOGIC BUDGET SUMMARIES FOR SIMULATED LAKES
     (ALL FLUID FLUXES ARE VOLUMES ADDED TO THE LAKE DURING PRESENT TIME STEP)
     ----------------------------------------------------------------------------------------
 LAKE    STAGE       PRECIP         EVAP         RUNOFF
   1  1.468951E+02  3.809259E+06  3.382360E+06  0.000000E+00

            GROUND WATER            SURFACE WATER
 LAKE    INFLOW     OUTFLOW      INFLOW     OUTFLOW
   1  1.3942E+06  8.1073E+05  0.0000E+00  0.0000E+00

         WATER    CONNECTED LAKE   UPDATED     TIME-STEP          STAGE CHANGE
 LAKE     USE         INFLUX        VOLUME    SURFACE AREA   TIME STEP  CUMULATIVE
   1   0.0000E+00   0.0000E+00   2.7184E+08    6.2500E+06   1.6155E-01  3.6895E+01
 --------------------------------------------------------------------------------



            CUMULATIVE HYDROLOGIC BUDGET SUMMARIES FOR SIMULATED LAKES
     (ALL FLUID FLUXES ARE SUMS OF VOLUMES ADDED TO THE LAKE SINCE INITIAL TIME)
     ---------------------------------------------------------------------------
 LAKE       PRECIP       EVAP       RUNOFF
   1     1.3622E+08  1.2096E+08  0.0000E+00

            GROUND WATER            SURFACE WATER
 LAKE    INFLOW     OUTFLOW      INFLOW     OUTFLOW
   1  2.2087E+08  5.5044E+06  0.0000E+00  0.0000E+00

         WATER    CONNECTED LAKE
 LAKE     USE         INFLUX
   1   0.0000E+00   0.0000E+00
 --------------------------------------------------------------------------------

 
 SOLVING FOR HEAD 
 ALL LAKES CONVERGED AFTER   2  ITERATIONS
 ALL LAKES CONVERGED AFTER   2  ITERATIONS
 ALL LAKES CONVERGED AFTER   2  ITERATIONS
 ALL LAKES CONVERGED AFTER   2  ITERATIONS
 ALL LAKES CONVERGED AFTER   2  ITERATIONS
 ALL LAKES CONVERGED AFTER   2  ITERATIONS
 ALL LAKES CONVERGED AFTER   2  ITERATIONS
 ALL LAKES CONVERGED AFTER   2  ITERATIONS
 ALL LAKES CONVERGED AFTER   2  ITERATIONS
 ALL LAKES CONVERGED AFTER   2  ITERATIONS
 ALL LAKES CONVERGED AFTER   2  ITERATIONS
 ALL LAKES CONVERGED AFTER   2  ITERATIONS
 ALL LAKES CONVERGED AFTER   2  ITERATIONS
 ALL LAKES CONVERGED AFTER   2  ITERATIONS
 ALL LAKES CONVERGED AFTER   2  ITERATIONS
 ALL LAKES CONVERGED AFTER   2  ITERATIONS
 ALL LAKES CONVERGED AFTER   2  ITERATIONS
 ALL LAKES CONVERGED AFTER   2  ITERATIONS
 ALL LAKES CONVERGED AFTER   2  ITERATIONS
 ALL LAKES CONVERGED AFTER   2  ITERATIONS
 ALL LAKES CONVERGED AFTER   2  ITERATIONS
 ALL LAKES CONVERGED AFTER   2  ITERATIONS
 ALL LAKES CONVERGED AFTER   2  ITERATIONS
 ALL LAKES CONVERGED AFTER   2  ITERATIONS
    24 ITERATIONS FOR TIME STEP  62 IN STRESS PERIOD    1

 MAXIMUM HEAD CHANGE FOR EACH ITERATION:

    HEAD CHANGE   HEAD CHANGE   HEAD CHANGE   HEAD CHANGE   HEAD CHANGE
  LAYER,ROW,COL LAYER,ROW,COL LAYER,ROW,COL LAYER,ROW,COL LAYER,ROW,COL
 ----------------------------------------------------------------------
     0.4024E-01    0.3079E-01    0.3229E-01    0.1801E-01    0.2347E-01
  (  3, 10,  9) (  5,  8, 10) (  5, 10,  8) (  3,  8, 10) (  3, 10,  8)
     0.1066E-01    0.8230E-02    0.5703E-02    0.7473E-02    0.3483E-02
  (  2,  7,  7) (  5, 10,  8) (  3,  8, 10) (  3, 10,  8) (  3,  8, 10)
     0.4157E-02    0.2177E-02    0.2261E-02    0.1195E-02    0.1555E-02
  (  2,  7,  7) (  5,  9,  9) (  5, 10,  8) (  2,  8, 11) (  3, 10,  8)
     0.7127E-03    0.5430E-03    0.3800E-03    0.4946E-03    0.2308E-03
  (  2,  7,  7) (  5, 10,  8) (  3,  8, 10) (  3, 10,  8) (  3,  8, 10)
     0.2726E-03    0.1428E-03    0.1520E-03    0.8869E-04
  (  2,  7,  7) (  5,  9,  9) (  5, 10,  8) (  2,  9, 11)


 HEAD/DRAWDOWN PRINTOUT FLAG = 0     TOTAL BUDGET PRINTOUT FLAG = 0
 CELL-BY-CELL FLOW TERM FLAG = 1

 OUTPUT FLAGS FOR ALL LAYERS ARE THE SAME:
   HEAD    DRAWDOWN  HEAD  DRAWDOWN
 PRINTOUT  PRINTOUT  SAVE    SAVE
 ----------------------------------
     0         0       0       0


     0  LAKE CELLS ARE DRY.

 PERIOD     1     TIME STEP    62     TIME STEP LENGTH  5.3592E+01
 PERIOD TIME  1.9325E+03     TOTAL SIMULATION TIME  1.9325E+03


                 HYDROLOGIC BUDGET SUMMARIES FOR SIMULATED LAKES
     (ALL FLUID FLUXES ARE VOLUMES ADDED TO THE LAKE DURING PRESENT TIME STEP)
     ----------------------------------------------------------------------------------------
 LAKE    STAGE       PRECIP         EVAP         RUNOFF
   1  1.470426E+02  3.885444E+06  3.450007E+06  0.000000E+00

            GROUND WATER            SURFACE WATER
 LAKE    INFLOW     OUTFLOW      INFLOW     OUTFLOW
   1  1.3628E+06  8.7567E+05  0.0000E+00  0.0000E+00

         WATER    CONNECTED LAKE   UPDATED     TIME-STEP          STAGE CHANGE
 LAKE     USE         INFLUX        VOLUME    SURFACE AREA   TIME STEP  CUMULATIVE
   1   0.0000E+00   0.0000E+00   2.7277E+08    6.2500E+06   1.4745E-01  3.7043E+01
 --------------------------------------------------------------------------------



            CUMULATIVE HYDROLOGIC BUDGET SUMMARIES FOR SIMULATED LAKES
     (ALL FLUID FLUXES ARE SUMS OF VOLUMES ADDED TO THE LAKE SINCE INITIAL TIME)
     ---------------------------------------------------------------------------
 LAKE       PRECIP       EVAP       RUNOFF
   1     1.4011E+08  1.2441E+08  0.0000E+00

            GROUND WATER            SURFACE WATER
 LAKE    INFLOW     OUTFLOW      INFLOW     OUTFLOW
   1  2.2223E+08  6.3801E+06  0.0000E+00  0.0000E+00

         WATER    CONNECTED LAKE
 LAKE     USE         INFLUX
   1   0.0000E+00   0.0000E+00
 --------------------------------------------------------------------------------

 
 SOLVING FOR HEAD 
 ALL LAKES CONVERGED AFTER   2  ITERATIONS
 ALL LAKES CONVERGED AFTER   2  ITERATIONS
 ALL LAKES CONVERGED AFTER   2  ITERATIONS
 ALL LAKES CONVERGED AFTER   2  ITERATIONS
 ALL LAKES CONVERGED AFTER   2  ITERATIONS
 ALL LAKES CONVERGED AFTER   2  ITERATIONS
 ALL LAKES CONVERGED AFTER   2  ITERATIONS
 ALL LAKES CONVERGED AFTER   2  ITERATIONS
 ALL LAKES CONVERGED AFTER   2  ITERATIONS
 ALL LAKES CONVERGED AFTER   2  ITERATIONS
 ALL LAKES CONVERGED AFTER   2  ITERATIONS
 ALL LAKES CONVERGED AFTER   2  ITERATIONS
 ALL LAKES CONVERGED AFTER   2  ITERATIONS
 ALL LAKES CONVERGED AFTER   2  ITERATIONS
 ALL LAKES CONVERGED AFTER   2  ITERATIONS
 ALL LAKES CONVERGED AFTER   2  ITERATIONS
 ALL LAKES CONVERGED AFTER   2  ITERATIONS
 ALL LAKES CONVERGED AFTER   2  ITERATIONS
 ALL LAKES CONVERGED AFTER   2  ITERATIONS
 ALL LAKES CONVERGED AFTER   2  ITERATIONS
 ALL LAKES CONVERGED AFTER   2  ITERATIONS
 ALL LAKES CONVERGED AFTER   2  ITERATIONS
 ALL LAKES CONVERGED AFTER   2  ITERATIONS
 ALL LAKES CONVERGED AFTER   2  ITERATIONS
    24 ITERATIONS FOR TIME STEP  63 IN STRESS PERIOD    1

 MAXIMUM HEAD CHANGE FOR EACH ITERATION:

    HEAD CHANGE   HEAD CHANGE   HEAD CHANGE   HEAD CHANGE   HEAD CHANGE
  LAYER,ROW,COL LAYER,ROW,COL LAYER,ROW,COL LAYER,ROW,COL LAYER,ROW,COL
 ----------------------------------------------------------------------
     0.3622E-01    0.2785E-01    0.2929E-01    0.1643E-01    0.2146E-01
  (  3, 10,  9) (  5,  8, 10) (  5, 10,  8) (  3,  8, 10) (  3, 10,  8)
     0.9820E-02    0.7600E-02    0.5301E-02    0.6957E-02    0.3262E-02
  (  2,  7,  7) (  5, 10,  8) (  3,  8, 10) (  3, 10,  8) (  3,  8, 10)
     0.3891E-02    0.2054E-02    0.2137E-02    0.1140E-02    0.1486E-02
  (  3,  8,  8) (  5,  9,  9) (  5, 10,  8) (  3,  8, 10) (  3, 10,  8)
     0.6837E-03    0.5296E-03    0.3720E-03    0.4767E-03    0.2266E-03
  (  2,  7,  7) (  5, 10,  8) (  2,  9, 11) (  4, 10,  8) (  2,  7, 11)
     0.2712E-03    0.1422E-03    0.1510E-03    0.7884E-04
  (  2,  7,  7) (  5,  9,  9) (  5, 10,  8) (  2,  8, 11)


 HEAD/DRAWDOWN PRINTOUT FLAG = 0     TOTAL BUDGET PRINTOUT FLAG = 0
 CELL-BY-CELL FLOW TERM FLAG = 1

 OUTPUT FLAGS FOR ALL LAYERS ARE THE SAME:
   HEAD    DRAWDOWN  HEAD  DRAWDOWN
 PRINTOUT  PRINTOUT  SAVE    SAVE
 ----------------------------------
     0         0       0       0


     0  LAKE CELLS ARE DRY.

 PERIOD     1     TIME STEP    63     TIME STEP LENGTH  5.4664E+01
 PERIOD TIME  1.9872E+03     TOTAL SIMULATION TIME  1.9872E+03


                 HYDROLOGIC BUDGET SUMMARIES FOR SIMULATED LAKES
     (ALL FLUID FLUXES ARE VOLUMES ADDED TO THE LAKE DURING PRESENT TIME STEP)
     ----------------------------------------------------------------------------------------
 LAKE    STAGE       PRECIP         EVAP         RUNOFF
   1  1.471770E+02  3.963153E+06  3.519007E+06  0.000000E+00

            GROUND WATER            SURFACE WATER
 LAKE    INFLOW     OUTFLOW      INFLOW     OUTFLOW
   1  1.3351E+06  9.3841E+05  0.0000E+00  0.0000E+00

         WATER    CONNECTED LAKE   UPDATED     TIME-STEP          STAGE CHANGE
 LAKE     USE         INFLUX        VOLUME    SURFACE AREA   TIME STEP  CUMULATIVE
   1   0.0000E+00   0.0000E+00   2.7361E+08    6.2500E+06   1.3439E-01  3.7177E+01
 --------------------------------------------------------------------------------



            CUMULATIVE HYDROLOGIC BUDGET SUMMARIES FOR SIMULATED LAKES
     (ALL FLUID FLUXES ARE SUMS OF VOLUMES ADDED TO THE LAKE SINCE INITIAL TIME)
     ---------------------------------------------------------------------------
 LAKE       PRECIP       EVAP       RUNOFF
   1     1.4407E+08  1.2793E+08  0.0000E+00

            GROUND WATER            SURFACE WATER
 LAKE    INFLOW     OUTFLOW      INFLOW     OUTFLOW
   1  2.2356E+08  7.3185E+06  0.0000E+00  0.0000E+00

         WATER    CONNECTED LAKE
 LAKE     USE         INFLUX
   1   0.0000E+00   0.0000E+00
 --------------------------------------------------------------------------------

 
 SOLVING FOR HEAD 
 ALL LAKES CONVERGED AFTER   2  ITERATIONS
 ALL LAKES CONVERGED AFTER   2  ITERATIONS
 ALL LAKES CONVERGED AFTER   2  ITERATIONS
 ALL LAKES CONVERGED AFTER   2  ITERATIONS
 ALL LAKES CONVERGED AFTER   2  ITERATIONS
 ALL LAKES CONVERGED AFTER   2  ITERATIONS
 ALL LAKES CONVERGED AFTER   2  ITERATIONS
 ALL LAKES CONVERGED AFTER   2  ITERATIONS
 ALL LAKES CONVERGED AFTER   2  ITERATIONS
 ALL LAKES CONVERGED AFTER   2  ITERATIONS
 ALL LAKES CONVERGED AFTER   2  ITERATIONS
 ALL LAKES CONVERGED AFTER   2  ITERATIONS
 ALL LAKES CONVERGED AFTER   2  ITERATIONS
 ALL LAKES CONVERGED AFTER   2  ITERATIONS
 ALL LAKES CONVERGED AFTER   2  ITERATIONS
 ALL LAKES CONVERGED AFTER   2  ITERATIONS
 ALL LAKES CONVERGED AFTER   2  ITERATIONS
 ALL LAKES CONVERGED AFTER   2  ITERATIONS
 ALL LAKES CONVERGED AFTER   2  ITERATIONS
 ALL LAKES CONVERGED AFTER   2  ITERATIONS
 ALL LAKES CONVERGED AFTER   2  ITERATIONS
 ALL LAKES CONVERGED AFTER   2  ITERATIONS
 ALL LAKES CONVERGED AFTER   2  ITERATIONS
 ALL LAKES CONVERGED AFTER   2  ITERATIONS
    24 ITERATIONS FOR TIME STEP  64 IN STRESS PERIOD    1

 MAXIMUM HEAD CHANGE FOR EACH ITERATION:

    HEAD CHANGE   HEAD CHANGE   HEAD CHANGE   HEAD CHANGE   HEAD CHANGE
  LAYER,ROW,COL LAYER,ROW,COL LAYER,ROW,COL LAYER,ROW,COL LAYER,ROW,COL
 ----------------------------------------------------------------------
     0.3252E-01    0.2512E-01    0.2650E-01    0.1497E-01    0.1957E-01
  (  3, 10,  9) (  5,  8, 10) (  5, 10,  8) (  3,  8, 10) (  3, 10,  8)
     0.9005E-02    0.7006E-02    0.4919E-02    0.6453E-02    0.3051E-02
  (  2,  7,  7) (  5, 10,  8) (  3,  8, 10) (  3, 10,  8) (  3,  8, 10)
     0.3641E-02    0.1931E-02    0.2014E-02    0.1086E-02    0.1406E-02
  (  2,  7,  7) (  5,  9,  9) (  5, 10,  8) (  2,  9, 11) (  3, 10,  8)
     0.6462E-03    0.5007E-03    0.3524E-03    0.4671E-03    0.2208E-03
  (  2,  7,  7) (  5, 10,  9) (  2,  9, 11) (  3, 10,  8) (  3,  8, 10)
     0.2624E-03    0.1356E-03    0.1473E-03    0.7889E-04
  (  3,  8,  8) (  4, 10, 11) (  5, 10,  8) (  2,  8, 11)


 HEAD/DRAWDOWN PRINTOUT FLAG = 0     TOTAL BUDGET PRINTOUT FLAG = 0
 CELL-BY-CELL FLOW TERM FLAG = 1

 OUTPUT FLAGS FOR ALL LAYERS ARE THE SAME:
   HEAD    DRAWDOWN  HEAD  DRAWDOWN
 PRINTOUT  PRINTOUT  SAVE    SAVE
 ----------------------------------
     0         0       0       0


     0  LAKE CELLS ARE DRY.

 PERIOD     1     TIME STEP    64     TIME STEP LENGTH  5.5757E+01
 PERIOD TIME  2.0429E+03     TOTAL SIMULATION TIME  2.0429E+03


                 HYDROLOGIC BUDGET SUMMARIES FOR SIMULATED LAKES
     (ALL FLUID FLUXES ARE VOLUMES ADDED TO THE LAKE DURING PRESENT TIME STEP)
     ----------------------------------------------------------------------------------------
 LAKE    STAGE       PRECIP         EVAP         RUNOFF
   1  1.472991E+02  4.042416E+06  3.589387E+06  0.000000E+00

            GROUND WATER            SURFACE WATER
 LAKE    INFLOW     OUTFLOW      INFLOW     OUTFLOW
   1  1.3104E+06  9.9937E+05  0.0000E+00  0.0000E+00

         WATER    CONNECTED LAKE   UPDATED     TIME-STEP          STAGE CHANGE
 LAKE     USE         INFLUX        VOLUME    SURFACE AREA   TIME STEP  CUMULATIVE
   1   0.0000E+00   0.0000E+00   2.7437E+08    6.2500E+06   1.2213E-01  3.7299E+01
 --------------------------------------------------------------------------------



            CUMULATIVE HYDROLOGIC BUDGET SUMMARIES FOR SIMULATED LAKES
     (ALL FLUID FLUXES ARE SUMS OF VOLUMES ADDED TO THE LAKE SINCE INITIAL TIME)
     ---------------------------------------------------------------------------
 LAKE       PRECIP       EVAP       RUNOFF
   1     1.4811E+08  1.3151E+08  0.0000E+00

            GROUND WATER            SURFACE WATER
 LAKE    INFLOW     OUTFLOW      INFLOW     OUTFLOW
   1  2.2487E+08  8.3178E+06  0.0000E+00  0.0000E+00

         WATER    CONNECTED LAKE
 LAKE     USE         INFLUX
   1   0.0000E+00   0.0000E+00
 --------------------------------------------------------------------------------

 
 SOLVING FOR HEAD 
 ALL LAKES CONVERGED AFTER   2  ITERATIONS
 ALL LAKES CONVERGED AFTER   2  ITERATIONS
 ALL LAKES CONVERGED AFTER   2  ITERATIONS
 ALL LAKES CONVERGED AFTER   2  ITERATIONS
 ALL LAKES CONVERGED AFTER   2  ITERATIONS
 ALL LAKES CONVERGED AFTER   2  ITERATIONS
 ALL LAKES CONVERGED AFTER   2  ITERATIONS
 ALL LAKES CONVERGED AFTER   2  ITERATIONS
 ALL LAKES CONVERGED AFTER   2  ITERATIONS
 ALL LAKES CONVERGED AFTER   2  ITERATIONS
 ALL LAKES CONVERGED AFTER   2  ITERATIONS
 ALL LAKES CONVERGED AFTER   2  ITERATIONS
 ALL LAKES CONVERGED AFTER   2  ITERATIONS
 ALL LAKES CONVERGED AFTER   2  ITERATIONS
 ALL LAKES CONVERGED AFTER   2  ITERATIONS
 ALL LAKES CONVERGED AFTER   2  ITERATIONS
 ALL LAKES CONVERGED AFTER   2  ITERATIONS
 ALL LAKES CONVERGED AFTER   2  ITERATIONS
 ALL LAKES CONVERGED AFTER   2  ITERATIONS
 ALL LAKES CONVERGED AFTER   2  ITERATIONS
 ALL LAKES CONVERGED AFTER   2  ITERATIONS
 ALL LAKES CONVERGED AFTER   2  ITERATIONS
 ALL LAKES CONVERGED AFTER   2  ITERATIONS
 ALL LAKES CONVERGED AFTER   2  ITERATIONS
    24 ITERATIONS FOR TIME STEP  65 IN STRESS PERIOD    1

 MAXIMUM HEAD CHANGE FOR EACH ITERATION:

    HEAD CHANGE   HEAD CHANGE   HEAD CHANGE   HEAD CHANGE   HEAD CHANGE
  LAYER,ROW,COL LAYER,ROW,COL LAYER,ROW,COL LAYER,ROW,COL LAYER,ROW,COL
 ----------------------------------------------------------------------
     0.2914E-01    0.2261E-01    0.2394E-01    0.1360E-01    0.1780E-01
  (  3, 10,  9) (  5,  8, 10) (  5, 10,  8) (  3,  8, 10) (  3, 10,  8)
     0.8237E-02    0.6437E-02    0.4548E-02    0.5975E-02    0.2833E-02
  (  2,  7,  7) (  5, 10,  8) (  3,  8, 10) (  3, 10,  8) (  2,  8, 11)
     0.3394E-02    0.1800E-02    0.1889E-02    0.1028E-02    0.1345E-02
  (  3,  8,  8) (  5,  9,  9) (  5, 10,  8) (  3,  8, 10) (  3, 10,  8)
     0.6172E-03    0.4743E-03    0.3419E-03    0.4470E-03    0.2107E-03
  (  2,  7,  7) (  5, 10,  8) (  2,  9, 11) (  3, 10,  8) (  3,  8, 10)
     0.2534E-03    0.1321E-03    0.1464E-03    0.8062E-04
  (  2,  7,  7) (  5,  9,  9) (  5, 10,  8) (  3,  8, 10)


 HEAD/DRAWDOWN PRINTOUT FLAG = 0     TOTAL BUDGET PRINTOUT FLAG = 0
 CELL-BY-CELL FLOW TERM FLAG = 1

 OUTPUT FLAGS FOR ALL LAYERS ARE THE SAME:
   HEAD    DRAWDOWN  HEAD  DRAWDOWN
 PRINTOUT  PRINTOUT  SAVE    SAVE
 ----------------------------------
     0         0       0       0


     0  LAKE CELLS ARE DRY.

 PERIOD     1     TIME STEP    65     TIME STEP LENGTH  5.6873E+01
 PERIOD TIME  2.0998E+03     TOTAL SIMULATION TIME  2.0998E+03


                 HYDROLOGIC BUDGET SUMMARIES FOR SIMULATED LAKES
     (ALL FLUID FLUXES ARE VOLUMES ADDED TO THE LAKE DURING PRESENT TIME STEP)
     ----------------------------------------------------------------------------------------
 LAKE    STAGE       PRECIP         EVAP         RUNOFF
   1  1.474099E+02  4.123264E+06  3.661174E+06  0.000000E+00

            GROUND WATER            SURFACE WATER
 LAKE    INFLOW     OUTFLOW      INFLOW     OUTFLOW
   1  1.2893E+06  1.0583E+06  0.0000E+00  0.0000E+00

         WATER    CONNECTED LAKE   UPDATED     TIME-STEP          STAGE CHANGE
 LAKE     USE         INFLUX        VOLUME    SURFACE AREA   TIME STEP  CUMULATIVE
   1   0.0000E+00   0.0000E+00   2.7506E+08    6.2500E+06   1.1077E-01  3.7410E+01
 --------------------------------------------------------------------------------



            CUMULATIVE HYDROLOGIC BUDGET SUMMARIES FOR SIMULATED LAKES
     (ALL FLUID FLUXES ARE SUMS OF VOLUMES ADDED TO THE LAKE SINCE INITIAL TIME)
     ---------------------------------------------------------------------------
 LAKE       PRECIP       EVAP       RUNOFF
   1     1.5224E+08  1.3518E+08  0.0000E+00

            GROUND WATER            SURFACE WATER
 LAKE    INFLOW     OUTFLOW      INFLOW     OUTFLOW
   1  2.2616E+08  9.3761E+06  0.0000E+00  0.0000E+00

         WATER    CONNECTED LAKE
 LAKE     USE         INFLUX
   1   0.0000E+00   0.0000E+00
 --------------------------------------------------------------------------------

 
 SOLVING FOR HEAD 
 ALL LAKES CONVERGED AFTER   2  ITERATIONS
 ALL LAKES CONVERGED AFTER   2  ITERATIONS
 ALL LAKES CONVERGED AFTER   2  ITERATIONS
 ALL LAKES CONVERGED AFTER   2  ITERATIONS
 ALL LAKES CONVERGED AFTER   2  ITERATIONS
 ALL LAKES CONVERGED AFTER   2  ITERATIONS
 ALL LAKES CONVERGED AFTER   2  ITERATIONS
 ALL LAKES CONVERGED AFTER   2  ITERATIONS
 ALL LAKES CONVERGED AFTER   2  ITERATIONS
 ALL LAKES CONVERGED AFTER   2  ITERATIONS
 ALL LAKES CONVERGED AFTER   2  ITERATIONS
 ALL LAKES CONVERGED AFTER   2  ITERATIONS
 ALL LAKES CONVERGED AFTER   2  ITERATIONS
 ALL LAKES CONVERGED AFTER   2  ITERATIONS
 ALL LAKES CONVERGED AFTER   2  ITERATIONS
 ALL LAKES CONVERGED AFTER   2  ITERATIONS
 ALL LAKES CONVERGED AFTER   2  ITERATIONS
 ALL LAKES CONVERGED AFTER   2  ITERATIONS
 ALL LAKES CONVERGED AFTER   2  ITERATIONS
 ALL LAKES CONVERGED AFTER   2  ITERATIONS
 ALL LAKES CONVERGED AFTER   2  ITERATIONS
 ALL LAKES CONVERGED AFTER   2  ITERATIONS
 ALL LAKES CONVERGED AFTER   2  ITERATIONS
 ALL LAKES CONVERGED AFTER   2  ITERATIONS
    24 ITERATIONS FOR TIME STEP  66 IN STRESS PERIOD    1

 MAXIMUM HEAD CHANGE FOR EACH ITERATION:

    HEAD CHANGE   HEAD CHANGE   HEAD CHANGE   HEAD CHANGE   HEAD CHANGE
  LAYER,ROW,COL LAYER,ROW,COL LAYER,ROW,COL LAYER,ROW,COL LAYER,ROW,COL
 ----------------------------------------------------------------------
     0.2605E-01    0.2030E-01    0.2155E-01    0.1233E-01    0.1616E-01
  (  3, 10,  9) (  5,  8, 10) (  5, 10,  8) (  3,  8, 10) (  3, 10,  8)
     0.7526E-02    0.5901E-02    0.4188E-02    0.5519E-02    0.2640E-02
  (  2,  7,  7) (  5, 10,  8) (  3,  8, 10) (  3, 10,  8) (  3,  8, 10)
     0.3155E-02    0.1688E-02    0.1770E-02    0.9678E-03    0.1265E-02
  (  3, 10, 10) (  5,  9,  9) (  5, 10,  8) (  3,  8, 10) (  3, 10,  8)
     0.5875E-03    0.4600E-03    0.3284E-03    0.4281E-03    0.2007E-03
  (  2,  7,  7) (  5, 10,  8) (  2,  7,  9) (  4, 10,  8) (  3,  8, 10)
     0.2443E-03    0.1315E-03    0.1366E-03    0.7057E-04
  (  2,  7,  7) (  5,  9,  9) (  5, 10,  8) (  3,  8, 10)


 HEAD/DRAWDOWN PRINTOUT FLAG = 0     TOTAL BUDGET PRINTOUT FLAG = 0
 CELL-BY-CELL FLOW TERM FLAG = 1

 OUTPUT FLAGS FOR ALL LAYERS ARE THE SAME:
   HEAD    DRAWDOWN  HEAD  DRAWDOWN
 PRINTOUT  PRINTOUT  SAVE    SAVE
 ----------------------------------
     0         0       0       0


     0  LAKE CELLS ARE DRY.

 PERIOD     1     TIME STEP    66     TIME STEP LENGTH  5.8010E+01
 PERIOD TIME  2.1578E+03     TOTAL SIMULATION TIME  2.1578E+03


                 HYDROLOGIC BUDGET SUMMARIES FOR SIMULATED LAKES
     (ALL FLUID FLUXES ARE VOLUMES ADDED TO THE LAKE DURING PRESENT TIME STEP)
     ----------------------------------------------------------------------------------------
 LAKE    STAGE       PRECIP         EVAP         RUNOFF
   1  1.475100E+02  4.205730E+06  3.734398E+06  0.000000E+00

            GROUND WATER            SURFACE WATER
 LAKE    INFLOW     OUTFLOW      INFLOW     OUTFLOW
   1  1.2711E+06  1.1156E+06  0.0000E+00  0.0000E+00

         WATER    CONNECTED LAKE   UPDATED     TIME-STEP          STAGE CHANGE
 LAKE     USE         INFLUX        VOLUME    SURFACE AREA   TIME STEP  CUMULATIVE
   1   0.0000E+00   0.0000E+00   2.7569E+08    6.2500E+06   1.0016E-01  3.7510E+01
 --------------------------------------------------------------------------------



            CUMULATIVE HYDROLOGIC BUDGET SUMMARIES FOR SIMULATED LAKES
     (ALL FLUID FLUXES ARE SUMS OF VOLUMES ADDED TO THE LAKE SINCE INITIAL TIME)
     ---------------------------------------------------------------------------
 LAKE       PRECIP       EVAP       RUNOFF
   1     1.5644E+08  1.3891E+08  0.0000E+00

            GROUND WATER            SURFACE WATER
 LAKE    INFLOW     OUTFLOW      INFLOW     OUTFLOW
   1  2.2743E+08  1.0492E+07  0.0000E+00  0.0000E+00

         WATER    CONNECTED LAKE
 LAKE     USE         INFLUX
   1   0.0000E+00   0.0000E+00
 --------------------------------------------------------------------------------

 
 SOLVING FOR HEAD 
 ALL LAKES CONVERGED AFTER   2  ITERATIONS
 ALL LAKES CONVERGED AFTER   2  ITERATIONS
 ALL LAKES CONVERGED AFTER   2  ITERATIONS
 ALL LAKES CONVERGED AFTER   2  ITERATIONS
 ALL LAKES CONVERGED AFTER   2  ITERATIONS
 ALL LAKES CONVERGED AFTER   2  ITERATIONS
 ALL LAKES CONVERGED AFTER   2  ITERATIONS
 ALL LAKES CONVERGED AFTER   2  ITERATIONS
 ALL LAKES CONVERGED AFTER   2  ITERATIONS
 ALL LAKES CONVERGED AFTER   2  ITERATIONS
 ALL LAKES CONVERGED AFTER   2  ITERATIONS
 ALL LAKES CONVERGED AFTER   2  ITERATIONS
 ALL LAKES CONVERGED AFTER   2  ITERATIONS
 ALL LAKES CONVERGED AFTER   2  ITERATIONS
 ALL LAKES CONVERGED AFTER   2  ITERATIONS
 ALL LAKES CONVERGED AFTER   2  ITERATIONS
 ALL LAKES CONVERGED AFTER   2  ITERATIONS
 ALL LAKES CONVERGED AFTER   2  ITERATIONS
 ALL LAKES CONVERGED AFTER   2  ITERATIONS
 ALL LAKES CONVERGED AFTER   2  ITERATIONS
 ALL LAKES CONVERGED AFTER   2  ITERATIONS
 ALL LAKES CONVERGED AFTER   2  ITERATIONS
 ALL LAKES CONVERGED AFTER   2  ITERATIONS
 ALL LAKES CONVERGED AFTER   2  ITERATIONS
    24 ITERATIONS FOR TIME STEP  67 IN STRESS PERIOD    1

 MAXIMUM HEAD CHANGE FOR EACH ITERATION:

    HEAD CHANGE   HEAD CHANGE   HEAD CHANGE   HEAD CHANGE   HEAD CHANGE
  LAYER,ROW,COL LAYER,ROW,COL LAYER,ROW,COL LAYER,ROW,COL LAYER,ROW,COL
 ----------------------------------------------------------------------
     0.2321E-01    0.1817E-01    0.1936E-01    0.1114E-01    0.1461E-01
  (  3, 10,  9) (  5,  8, 10) (  5, 10,  8) (  3,  8, 10) (  3, 10,  8)
     0.6847E-02    0.5400E-02    0.3839E-02    0.5064E-02    0.2439E-02
  (  2,  7,  7) (  5, 10,  8) (  3,  8, 10) (  3, 10,  8) (  3,  8, 10)
     0.2924E-02    0.1568E-02    0.1657E-02    0.9075E-03    0.1177E-02
  (  3,  8,  8) (  5,  9,  9) (  5, 10,  8) (  3,  8, 10) (  3, 10,  8)
     0.5503E-03    0.4374E-03    0.3212E-03    0.4098E-03    0.2004E-03
  (  2,  7,  7) (  5, 10,  8) (  2,  9, 11) (  4, 10,  8) (  3,  8, 10)
     0.2430E-03    0.1306E-03    0.1268E-03    0.7053E-04
  (  2,  7,  7) (  5,  9,  9) (  5, 10,  8) (  3,  8, 10)


 HEAD/DRAWDOWN PRINTOUT FLAG = 0     TOTAL BUDGET PRINTOUT FLAG = 0
 CELL-BY-CELL FLOW TERM FLAG = 1

 OUTPUT FLAGS FOR ALL LAYERS ARE THE SAME:
   HEAD    DRAWDOWN  HEAD  DRAWDOWN
 PRINTOUT  PRINTOUT  SAVE    SAVE
 ----------------------------------
     0         0       0       0


     0  LAKE CELLS ARE DRY.

 PERIOD     1     TIME STEP    67     TIME STEP LENGTH  5.9170E+01
 PERIOD TIME  2.2170E+03     TOTAL SIMULATION TIME  2.2170E+03


                 HYDROLOGIC BUDGET SUMMARIES FOR SIMULATED LAKES
     (ALL FLUID FLUXES ARE VOLUMES ADDED TO THE LAKE DURING PRESENT TIME STEP)
     ----------------------------------------------------------------------------------------
 LAKE    STAGE       PRECIP         EVAP         RUNOFF
   1  1.476004E+02  4.289844E+06  3.809086E+06  0.000000E+00

            GROUND WATER            SURFACE WATER
 LAKE    INFLOW     OUTFLOW      INFLOW     OUTFLOW
   1  1.2563E+06  1.1712E+06  0.0000E+00  0.0000E+00

         WATER    CONNECTED LAKE   UPDATED     TIME-STEP          STAGE CHANGE
 LAKE     USE         INFLUX        VOLUME    SURFACE AREA   TIME STEP  CUMULATIVE
   1   0.0000E+00   0.0000E+00   2.7625E+08    6.2500E+06   9.0374E-02  3.7600E+01
 --------------------------------------------------------------------------------



            CUMULATIVE HYDROLOGIC BUDGET SUMMARIES FOR SIMULATED LAKES
     (ALL FLUID FLUXES ARE SUMS OF VOLUMES ADDED TO THE LAKE SINCE INITIAL TIME)
     ---------------------------------------------------------------------------
 LAKE       PRECIP       EVAP       RUNOFF
   1     1.6073E+08  1.4272E+08  0.0000E+00

            GROUND WATER            SURFACE WATER
 LAKE    INFLOW     OUTFLOW      INFLOW     OUTFLOW
   1  2.2869E+08  1.1663E+07  0.0000E+00  0.0000E+00

         WATER    CONNECTED LAKE
 LAKE     USE         INFLUX
   1   0.0000E+00   0.0000E+00
 --------------------------------------------------------------------------------

 
 SOLVING FOR HEAD 
 ALL LAKES CONVERGED AFTER   2  ITERATIONS
 ALL LAKES CONVERGED AFTER   2  ITERATIONS
 ALL LAKES CONVERGED AFTER   2  ITERATIONS
 ALL LAKES CONVERGED AFTER   2  ITERATIONS
 ALL LAKES CONVERGED AFTER   2  ITERATIONS
 ALL LAKES CONVERGED AFTER   2  ITERATIONS
 ALL LAKES CONVERGED AFTER   2  ITERATIONS
 ALL LAKES CONVERGED AFTER   2  ITERATIONS
 ALL LAKES CONVERGED AFTER   2  ITERATIONS
 ALL LAKES CONVERGED AFTER   2  ITERATIONS
 ALL LAKES CONVERGED AFTER   2  ITERATIONS
 ALL LAKES CONVERGED AFTER   2  ITERATIONS
 ALL LAKES CONVERGED AFTER   2  ITERATIONS
 ALL LAKES CONVERGED AFTER   2  ITERATIONS
 ALL LAKES CONVERGED AFTER   2  ITERATIONS
 ALL LAKES CONVERGED AFTER   2  ITERATIONS
 ALL LAKES CONVERGED AFTER   2  ITERATIONS
 ALL LAKES CONVERGED AFTER   2  ITERATIONS
 ALL LAKES CONVERGED AFTER   2  ITERATIONS
 ALL LAKES CONVERGED AFTER   2  ITERATIONS
 ALL LAKES CONVERGED AFTER   2  ITERATIONS
 ALL LAKES CONVERGED AFTER   2  ITERATIONS
 ALL LAKES CONVERGED AFTER   2  ITERATIONS
 ALL LAKES CONVERGED AFTER   2  ITERATIONS
    24 ITERATIONS FOR TIME STEP  68 IN STRESS PERIOD    1

 MAXIMUM HEAD CHANGE FOR EACH ITERATION:

    HEAD CHANGE   HEAD CHANGE   HEAD CHANGE   HEAD CHANGE   HEAD CHANGE
  LAYER,ROW,COL LAYER,ROW,COL LAYER,ROW,COL LAYER,ROW,COL LAYER,ROW,COL
 ----------------------------------------------------------------------
     0.2065E-01    0.1623E-01    0.1734E-01    0.1004E-01    0.1319E-01
  (  3, 10,  9) (  5,  8, 10) (  5, 10,  8) (  3,  8, 10) (  3, 10,  8)
     0.6213E-02    0.4924E-02    0.3520E-02    0.4654E-02    0.2249E-02
  (  2,  7,  7) (  5, 10,  8) (  3,  8, 10) (  3, 10,  8) (  2,  8, 11)
     0.2703E-02    0.1456E-02    0.1540E-02    0.8471E-03    0.1116E-02
  (  2,  7,  7) (  5,  9,  9) (  5, 10,  8) (  3,  8, 10) (  3, 10,  8)
     0.5297E-03    0.4138E-03    0.2971E-03    0.3895E-03    0.1963E-03
  (  2,  7,  7) (  5, 10,  8) (  3,  8, 10) (  3, 10,  8) (  2,  7,  9)
     0.2255E-03    0.1205E-03    0.1322E-03    0.7832E-04
  (  2, 11, 11) (  5,  9,  9) (  5, 10,  8) (  2,  7, 11)


 HEAD/DRAWDOWN PRINTOUT FLAG = 0     TOTAL BUDGET PRINTOUT FLAG = 0
 CELL-BY-CELL FLOW TERM FLAG = 1

 OUTPUT FLAGS FOR ALL LAYERS ARE THE SAME:
   HEAD    DRAWDOWN  HEAD  DRAWDOWN
 PRINTOUT  PRINTOUT  SAVE    SAVE
 ----------------------------------
     0         0       0       0


     0  LAKE CELLS ARE DRY.

 PERIOD     1     TIME STEP    68     TIME STEP LENGTH  6.0354E+01
 PERIOD TIME  2.2774E+03     TOTAL SIMULATION TIME  2.2774E+03


                 HYDROLOGIC BUDGET SUMMARIES FOR SIMULATED LAKES
     (ALL FLUID FLUXES ARE VOLUMES ADDED TO THE LAKE DURING PRESENT TIME STEP)
     ----------------------------------------------------------------------------------------
 LAKE    STAGE       PRECIP         EVAP         RUNOFF
   1  1.476818E+02  4.375641E+06  3.885268E+06  0.000000E+00

            GROUND WATER            SURFACE WATER
 LAKE    INFLOW     OUTFLOW      INFLOW     OUTFLOW
   1  1.2491E+06  1.2299E+06  0.0000E+00  0.0000E+00

         WATER    CONNECTED LAKE   UPDATED     TIME-STEP          STAGE CHANGE
 LAKE     USE         INFLUX        VOLUME    SURFACE AREA   TIME STEP  CUMULATIVE
   1   0.0000E+00   0.0000E+00   2.7676E+08    6.2500E+06   8.1363E-02  3.7682E+01
 --------------------------------------------------------------------------------



            CUMULATIVE HYDROLOGIC BUDGET SUMMARIES FOR SIMULATED LAKES
     (ALL FLUID FLUXES ARE SUMS OF VOLUMES ADDED TO THE LAKE SINCE INITIAL TIME)
     ---------------------------------------------------------------------------
 LAKE       PRECIP       EVAP       RUNOFF
   1     1.6511E+08  1.4660E+08  0.0000E+00

            GROUND WATER            SURFACE WATER
 LAKE    INFLOW     OUTFLOW      INFLOW     OUTFLOW
   1  2.2994E+08  1.2893E+07  0.0000E+00  0.0000E+00

         WATER    CONNECTED LAKE
 LAKE     USE         INFLUX
   1   0.0000E+00   0.0000E+00
 --------------------------------------------------------------------------------

 
 SOLVING FOR HEAD 
 ALL LAKES CONVERGED AFTER   2  ITERATIONS
 ALL LAKES CONVERGED AFTER   2  ITERATIONS
 ALL LAKES CONVERGED AFTER   2  ITERATIONS
 ALL LAKES CONVERGED AFTER   2  ITERATIONS
 ALL LAKES CONVERGED AFTER   2  ITERATIONS
 ALL LAKES CONVERGED AFTER   2  ITERATIONS
 ALL LAKES CONVERGED AFTER   2  ITERATIONS
 ALL LAKES CONVERGED AFTER   2  ITERATIONS
 ALL LAKES CONVERGED AFTER   2  ITERATIONS
 ALL LAKES CONVERGED AFTER   2  ITERATIONS
 ALL LAKES CONVERGED AFTER   2  ITERATIONS
 ALL LAKES CONVERGED AFTER   2  ITERATIONS
 ALL LAKES CONVERGED AFTER   2  ITERATIONS
 ALL LAKES CONVERGED AFTER   2  ITERATIONS
 ALL LAKES CONVERGED AFTER   2  ITERATIONS
 ALL LAKES CONVERGED AFTER   2  ITERATIONS
 ALL LAKES CONVERGED AFTER   2  ITERATIONS
 ALL LAKES CONVERGED AFTER   2  ITERATIONS
 ALL LAKES CONVERGED AFTER   2  ITERATIONS
 ALL LAKES CONVERGED AFTER   2  ITERATIONS
 ALL LAKES CONVERGED AFTER   2  ITERATIONS
 ALL LAKES CONVERGED AFTER   2  ITERATIONS
 ALL LAKES CONVERGED AFTER   2  ITERATIONS
 ALL LAKES CONVERGED AFTER   2  ITERATIONS
    24 ITERATIONS FOR TIME STEP  69 IN STRESS PERIOD    1

 MAXIMUM HEAD CHANGE FOR EACH ITERATION:

    HEAD CHANGE   HEAD CHANGE   HEAD CHANGE   HEAD CHANGE   HEAD CHANGE
  LAYER,ROW,COL LAYER,ROW,COL LAYER,ROW,COL LAYER,ROW,COL LAYER,ROW,COL
 ----------------------------------------------------------------------
     0.1831E-01    0.1445E-01    0.1549E-01    0.9019E-02    0.1187E-01
  (  3, 10,  9) (  5,  8, 10) (  5, 10,  8) (  3,  8, 10) (  3, 10,  8)
     0.5618E-02    0.4473E-02    0.3212E-02    0.4245E-02    0.2068E-02
  (  2,  7,  7) (  5, 10,  8) (  3,  8, 10) (  3, 10,  8) (  3,  8, 10)
     0.2484E-02    0.1346E-02    0.1431E-02    0.7902E-03    0.1037E-02
  (  3,  8,  8) (  5,  9,  9) (  5, 10,  8) (  2,  8, 11) (  3, 10,  8)
     0.4918E-03    0.3908E-03    0.2815E-03    0.3719E-03    0.1869E-03
  (  2,  7,  7) (  5, 10,  8) (  2,  9, 11) (  4, 10,  8) (  2,  7, 11)
     0.2243E-03    0.1199E-03    0.1219E-03    0.7055E-04
  (  2,  7,  7) (  5,  9,  9) (  5, 10,  8) (  3,  8, 10)


 HEAD/DRAWDOWN PRINTOUT FLAG = 0     TOTAL BUDGET PRINTOUT FLAG = 0
 CELL-BY-CELL FLOW TERM FLAG = 1

 OUTPUT FLAGS FOR ALL LAYERS ARE THE SAME:
   HEAD    DRAWDOWN  HEAD  DRAWDOWN
 PRINTOUT  PRINTOUT  SAVE    SAVE
 ----------------------------------
     0         0       0       0


     0  LAKE CELLS ARE DRY.

 PERIOD     1     TIME STEP    69     TIME STEP LENGTH  6.1561E+01
 PERIOD TIME  2.3389E+03     TOTAL SIMULATION TIME  2.3389E+03


                 HYDROLOGIC BUDGET SUMMARIES FOR SIMULATED LAKES
     (ALL FLUID FLUXES ARE VOLUMES ADDED TO THE LAKE DURING PRESENT TIME STEP)
     ----------------------------------------------------------------------------------------
 LAKE    STAGE       PRECIP         EVAP         RUNOFF
   1  1.477549E+02  4.463154E+06  3.962973E+06  0.000000E+00

            GROUND WATER            SURFACE WATER
 LAKE    INFLOW     OUTFLOW      INFLOW     OUTFLOW
   1  1.2458E+06  1.2885E+06  0.0000E+00  0.0000E+00

         WATER    CONNECTED LAKE   UPDATED     TIME-STEP          STAGE CHANGE
 LAKE     USE         INFLUX        VOLUME    SURFACE AREA   TIME STEP  CUMULATIVE
   1   0.0000E+00   0.0000E+00   2.7722E+08    6.2500E+06   7.3083E-02  3.7755E+01
 --------------------------------------------------------------------------------



            CUMULATIVE HYDROLOGIC BUDGET SUMMARIES FOR SIMULATED LAKES
     (ALL FLUID FLUXES ARE SUMS OF VOLUMES ADDED TO THE LAKE SINCE INITIAL TIME)
     ---------------------------------------------------------------------------
 LAKE       PRECIP       EVAP       RUNOFF
   1     1.6957E+08  1.5057E+08  0.0000E+00

            GROUND WATER            SURFACE WATER
 LAKE    INFLOW     OUTFLOW      INFLOW     OUTFLOW
   1  2.3119E+08  1.4181E+07  0.0000E+00  0.0000E+00

         WATER    CONNECTED LAKE
 LAKE     USE         INFLUX
   1   0.0000E+00   0.0000E+00
 --------------------------------------------------------------------------------

 
 SOLVING FOR HEAD 
 ALL LAKES CONVERGED AFTER   2  ITERATIONS
 ALL LAKES CONVERGED AFTER   2  ITERATIONS
 ALL LAKES CONVERGED AFTER   2  ITERATIONS
 ALL LAKES CONVERGED AFTER   2  ITERATIONS
 ALL LAKES CONVERGED AFTER   2  ITERATIONS
 ALL LAKES CONVERGED AFTER   2  ITERATIONS
 ALL LAKES CONVERGED AFTER   2  ITERATIONS
 ALL LAKES CONVERGED AFTER   2  ITERATIONS
 ALL LAKES CONVERGED AFTER   2  ITERATIONS
 ALL LAKES CONVERGED AFTER   2  ITERATIONS
 ALL LAKES CONVERGED AFTER   2  ITERATIONS
 ALL LAKES CONVERGED AFTER   2  ITERATIONS
 ALL LAKES CONVERGED AFTER   2  ITERATIONS
 ALL LAKES CONVERGED AFTER   2  ITERATIONS
 ALL LAKES CONVERGED AFTER   2  ITERATIONS
 ALL LAKES CONVERGED AFTER   2  ITERATIONS
 ALL LAKES CONVERGED AFTER   2  ITERATIONS
 ALL LAKES CONVERGED AFTER   2  ITERATIONS
 ALL LAKES CONVERGED AFTER   2  ITERATIONS
 ALL LAKES CONVERGED AFTER   2  ITERATIONS
 ALL LAKES CONVERGED AFTER   1  ITERATIONS
 ALL LAKES CONVERGED AFTER   2  ITERATIONS
 ALL LAKES CONVERGED AFTER   2  ITERATIONS
 ALL LAKES CONVERGED AFTER   2  ITERATIONS
    24 ITERATIONS FOR TIME STEP  70 IN STRESS PERIOD    1

 MAXIMUM HEAD CHANGE FOR EACH ITERATION:

    HEAD CHANGE   HEAD CHANGE   HEAD CHANGE   HEAD CHANGE   HEAD CHANGE
  LAYER,ROW,COL LAYER,ROW,COL LAYER,ROW,COL LAYER,ROW,COL LAYER,ROW,COL
 ----------------------------------------------------------------------
     0.1622E-01    0.1284E-01    0.1381E-01    0.8091E-02    0.1065E-01
  (  3, 10,  9) (  5,  8, 10) (  5, 10,  8) (  3,  8, 10) (  3, 10,  8)
     0.5072E-02    0.4047E-02    0.2924E-02    0.3883E-02    0.1897E-02
  (  2,  7,  7) (  5, 10,  8) (  3,  8, 10) (  3, 10,  8) (  3,  8, 10)
     0.2281E-02    0.1246E-02    0.1319E-02    0.7362E-03    0.9670E-03
  (  2,  7,  7) (  5,  9,  9) (  5, 10,  8) (  3,  8, 10) (  3, 10,  8)
     0.4628E-03    0.3675E-03    0.2665E-03    0.3517E-03    0.1706E-03
  (  2,  7,  7) (  5, 10,  8) (  3,  8, 10) (  3, 10,  8) (  3,  8, 10)
     0.2064E-03    0.1098E-03    0.1181E-03    0.7054E-04
  (  3,  8,  8) (  5,  9,  9) (  5, 10,  8) (  3,  8, 10)


 HEAD/DRAWDOWN PRINTOUT FLAG = 1     TOTAL BUDGET PRINTOUT FLAG = 1
 CELL-BY-CELL FLOW TERM FLAG = 1

 OUTPUT FLAGS FOR EACH LAYER:
          HEAD    DRAWDOWN  HEAD  DRAWDOWN
 LAYER  PRINTOUT  PRINTOUT  SAVE    SAVE
 -----------------------------------------
    1       0         0       0       0
    2       0         0       0       0
    3       0         0       0       0
    4       0         0       0       0
    5       1         0       0       0


     0  LAKE CELLS ARE DRY.

 PERIOD     1     TIME STEP    70     TIME STEP LENGTH  6.2792E+01
 PERIOD TIME  2.4017E+03     TOTAL SIMULATION TIME  2.4017E+03


                 HYDROLOGIC BUDGET SUMMARIES FOR SIMULATED LAKES
     (ALL FLUID FLUXES ARE VOLUMES ADDED TO THE LAKE DURING PRESENT TIME STEP)
     ----------------------------------------------------------------------------------------
 LAKE    STAGE       PRECIP         EVAP         RUNOFF
   1  1.478203E+02  4.552416E+06  4.042232E+06  0.000000E+00

            GROUND WATER            SURFACE WATER
 LAKE    INFLOW     OUTFLOW      INFLOW     OUTFLOW
   1  1.2449E+06  1.3453E+06  0.0000E+00  0.0000E+00

         WATER    CONNECTED LAKE   UPDATED     TIME-STEP          STAGE CHANGE
 LAKE     USE         INFLUX        VOLUME    SURFACE AREA   TIME STEP  CUMULATIVE
   1   0.0000E+00   0.0000E+00   2.7763E+08    6.2500E+06   6.5423E-02  3.7820E+01
 --------------------------------------------------------------------------------



            CUMULATIVE HYDROLOGIC BUDGET SUMMARIES FOR SIMULATED LAKES
     (ALL FLUID FLUXES ARE SUMS OF VOLUMES ADDED TO THE LAKE SINCE INITIAL TIME)
     ---------------------------------------------------------------------------
 LAKE       PRECIP       EVAP       RUNOFF
   1     1.7412E+08  1.5461E+08  0.0000E+00

            GROUND WATER            SURFACE WATER
 LAKE    INFLOW     OUTFLOW      INFLOW     OUTFLOW
   1  2.3243E+08  1.5526E+07  0.0000E+00  0.0000E+00

         WATER    CONNECTED LAKE
 LAKE     USE         INFLUX
   1   0.0000E+00   0.0000E+00
 --------------------------------------------------------------------------------

1
              HEAD IN LAYER   5 AT END OF TIME STEP  70 IN STRESS PERIOD    1
  ---------------------------------------------------------------------------

          1      2      3      4      5      6      7      8      9     10
 .........................................................................
   1   160.0  158.9  157.3  155.8  154.2  152.7  151.5  150.8  150.0  149.2
   2   160.0  158.6  156.7  155.0  153.4  151.8  150.7  149.9  149.1  148.4
   3   160.0  158.4  156.3  154.4  152.7  151.1  149.9  149.1  148.4  147.6
   4   160.0  158.3  156.0  154.1  152.4  150.7  149.5  148.7  148.0  147.2
   5   160.0  158.2  155.9  153.9  152.1  150.4  149.2  148.5  147.8  147.1
   6   160.0  158.2  155.8  153.8  151.9  150.1  148.8  148.2  147.7  147.2
   7   160.0  158.2  155.8  153.8  151.8  149.8  147.9  147.8  147.8  147.8
   8   160.0  158.2  155.8  153.7  151.8  149.7  147.8  147.8  147.8  147.8
   9   160.0  158.2  155.8  153.7  151.8  149.7  147.8  147.8  147.8  147.8
  10   160.0  158.2  155.8  153.7  151.8  149.7  147.8  147.8  147.8  147.8
  11   160.0  158.2  155.8  153.8  151.8  149.8  147.9  147.8  147.8  147.8
  12   160.0  158.2  155.8  153.8  151.9  150.1  148.8  148.2  147.7  147.2
  13   160.0  158.2  155.9  153.9  152.1  150.4  149.2  148.5  147.8  147.1
  14   160.0  158.3  156.0  154.1  152.4  150.7  149.5  148.7  148.0  147.2
  15   160.0  158.4  156.3  154.4  152.7  151.1  149.9  149.1  148.4  147.6
  16   160.0  158.6  156.7  155.0  153.4  151.8  150.7  149.9  149.1  148.4
  17   160.0  158.9  157.3  155.8  154.2  152.7  151.5  150.8  150.0  149.2
1
              HEAD IN LAYER   5 AT END OF TIME STEP  70 IN STRESS PERIOD    1
  ---------------------------------------------------------------------------

         11     12     13     14     15     16     17
 ....................................................
   1   148.5  147.3  145.8  144.2  142.7  141.1  140.0
   2   147.6  146.4  144.9  143.4  141.9  140.6  140.0
   3   146.8  145.7  144.2  142.7  141.3  140.3  140.0
   4   146.5  145.3  143.8  142.4  141.1  140.2  140.0
   5   146.3  145.2  143.7  142.2  141.0  140.1  140.0
   6   146.6  145.3  143.7  142.2  140.9  140.1  140.0
   7   147.7  145.6  143.7  142.2  140.9  140.1  140.0
   8   147.7  145.7  143.8  142.2  140.9  140.1  140.0
   9   147.7  145.7  143.8  142.2  140.9  140.1  140.0
  10   147.7  145.7  143.8  142.2  140.9  140.1  140.0
  11   147.7  145.6  143.7  142.2  140.9  140.1  140.0
  12   146.6  145.3  143.7  142.2  140.9  140.1  140.0
  13   146.3  145.2  143.7  142.2  141.0  140.1  140.0
  14   146.5  145.3  143.8  142.4  141.1  140.2  140.0
  15   146.8  145.7  144.2  142.7  141.3  140.3  140.0
  16   147.6  146.4  144.9  143.4  141.9  140.6  140.0
  17   148.5  147.3  145.8  144.2  142.7  141.1  140.0
1
  VOLUMETRIC BUDGET FOR ENTIRE MODEL AT END OF TIME STEP 70 IN STRESS PERIOD   1
  ------------------------------------------------------------------------------

     CUMULATIVE VOLUMES      L**3       RATES FOR THIS TIME STEP      L**3/T
     ------------------                 ------------------------

           IN:                                      IN:
           ---                                      ---
             STORAGE =       32205.5820               STORAGE =           0.0000
       CONSTANT HEAD =   856591488.0000         CONSTANT HEAD =      168101.2188
                  ET =           0.0000                    ET =           0.0000
            RECHARGE =  4178966784.0000              RECHARGE =     1740000.0000
     SPECIFIED FLOWS =           0.0000       SPECIFIED FLOWS =           0.0000
       LAKE  SEEPAGE =    15526437.0000         LAKE  SEEPAGE =       21423.9414

            TOTAL IN =  5051117056.0000              TOTAL IN =     1929525.1250

          OUT:                                     OUT:
          ----                                     ----
             STORAGE =  1009722240.0000               STORAGE =        4370.8193
       CONSTANT HEAD =    13936460.0000         CONSTANT HEAD =        9114.5439
                  ET =  3794979584.0000                    ET =     1896194.5000
            RECHARGE =           0.0000              RECHARGE =           0.0000
     SPECIFIED FLOWS =           0.0000       SPECIFIED FLOWS =           0.0000
       LAKE  SEEPAGE =   232430384.0000         LAKE  SEEPAGE =       19825.2715

           TOTAL OUT =  5051068416.0000             TOTAL OUT =     1929505.1250

            IN - OUT =       48640.0000              IN - OUT =          20.0000

 PERCENT DISCREPANCY =           0.00     PERCENT DISCREPANCY =           0.00






          TIME SUMMARY AT END OF TIME STEP  70 IN STRESS PERIOD    1
                    SECONDS     MINUTES      HOURS       DAYS        YEARS
                    -----------------------------------------------------------
   TIME STEP LENGTH 5.42522E+06  90420.      1507.0      62.792     0.17191    
 STRESS PERIOD TIME 2.07507E+08 3.45846E+06  57641.      2401.7      6.5755    
         TOTAL TIME 2.07507E+08 3.45846E+06  57641.      2401.7      6.5755    
1
 
 SOLVING FOR HEAD 
 ALL LAKES CONVERGED AFTER   2  ITERATIONS
 ALL LAKES CONVERGED AFTER   2  ITERATIONS
 ALL LAKES CONVERGED AFTER   2  ITERATIONS
 ALL LAKES CONVERGED AFTER   2  ITERATIONS
 ALL LAKES CONVERGED AFTER   2  ITERATIONS
 ALL LAKES CONVERGED AFTER   2  ITERATIONS
 ALL LAKES CONVERGED AFTER   2  ITERATIONS
 ALL LAKES CONVERGED AFTER   2  ITERATIONS
 ALL LAKES CONVERGED AFTER   2  ITERATIONS
 ALL LAKES CONVERGED AFTER   2  ITERATIONS
 ALL LAKES CONVERGED AFTER   2  ITERATIONS
 ALL LAKES CONVERGED AFTER   2  ITERATIONS
 ALL LAKES CONVERGED AFTER   2  ITERATIONS
 ALL LAKES CONVERGED AFTER   2  ITERATIONS
 ALL LAKES CONVERGED AFTER   2  ITERATIONS
 ALL LAKES CONVERGED AFTER   2  ITERATIONS
 ALL LAKES CONVERGED AFTER   2  ITERATIONS
 ALL LAKES CONVERGED AFTER   2  ITERATIONS
 ALL LAKES CONVERGED AFTER   2  ITERATIONS
 ALL LAKES CONVERGED AFTER   2  ITERATIONS
 ALL LAKES CONVERGED AFTER   1  ITERATIONS
 ALL LAKES CONVERGED AFTER   2  ITERATIONS
 ALL LAKES CONVERGED AFTER   2  ITERATIONS
 ALL LAKES CONVERGED AFTER   2  ITERATIONS
    24 ITERATIONS FOR TIME STEP  71 IN STRESS PERIOD    1

 MAXIMUM HEAD CHANGE FOR EACH ITERATION:

    HEAD CHANGE   HEAD CHANGE   HEAD CHANGE   HEAD CHANGE   HEAD CHANGE
  LAYER,ROW,COL LAYER,ROW,COL LAYER,ROW,COL LAYER,ROW,COL LAYER,ROW,COL
 ----------------------------------------------------------------------
     0.1431E-01    0.1137E-01    0.1227E-01    0.7223E-02    0.9536E-02
  (  3, 10,  9) (  5,  8, 10) (  5, 10,  8) (  3,  8, 10) (  3, 10,  8)
     0.4564E-02    0.3663E-02    0.2656E-02    0.3521E-02    0.1737E-02
  (  2,  7,  7) (  5, 10,  8) (  3,  8, 10) (  3, 10,  8) (  3,  8, 10)
     0.2091E-02    0.1138E-02    0.1222E-02    0.6854E-03    0.8972E-03
  (  3,  8,  8) (  5,  9,  9) (  5, 10,  8) (  3,  8, 10) (  3, 10,  8)
     0.4255E-03    0.3442E-03    0.2604E-03    0.3245E-03    0.1703E-03
  (  2,  7,  7) (  5, 10,  8) (  2,  9, 11) (  5, 10,  8) (  3,  8, 10)
     0.1970E-03    0.1089E-03    0.1166E-03    0.6904E-04
  (  2,  7,  7) (  5,  9,  9) (  5, 10,  8) (  2,  8, 11)


 HEAD/DRAWDOWN PRINTOUT FLAG = 0     TOTAL BUDGET PRINTOUT FLAG = 0
 CELL-BY-CELL FLOW TERM FLAG = 1

 OUTPUT FLAGS FOR ALL LAYERS ARE THE SAME:
   HEAD    DRAWDOWN  HEAD  DRAWDOWN
 PRINTOUT  PRINTOUT  SAVE    SAVE
 ----------------------------------
     0         0       0       0


     0  LAKE CELLS ARE DRY.

 PERIOD     1     TIME STEP    71     TIME STEP LENGTH  6.4048E+01
 PERIOD TIME  2.4658E+03     TOTAL SIMULATION TIME  2.4658E+03


                 HYDROLOGIC BUDGET SUMMARIES FOR SIMULATED LAKES
     (ALL FLUID FLUXES ARE VOLUMES ADDED TO THE LAKE DURING PRESENT TIME STEP)
     ----------------------------------------------------------------------------------------
 LAKE    STAGE       PRECIP         EVAP         RUNOFF
   1  1.478787E+02  4.643465E+06  4.123076E+06  0.000000E+00

            GROUND WATER            SURFACE WATER
 LAKE    INFLOW     OUTFLOW      INFLOW     OUTFLOW
   1  1.2462E+06  1.4005E+06  0.0000E+00  0.0000E+00

         WATER    CONNECTED LAKE   UPDATED     TIME-STEP          STAGE CHANGE
 LAKE     USE         INFLUX        VOLUME    SURFACE AREA   TIME STEP  CUMULATIVE
   1   0.0000E+00   0.0000E+00   2.7799E+08    6.2500E+06   5.8415E-02  3.7879E+01
 --------------------------------------------------------------------------------



            CUMULATIVE HYDROLOGIC BUDGET SUMMARIES FOR SIMULATED LAKES
     (ALL FLUID FLUXES ARE SUMS OF VOLUMES ADDED TO THE LAKE SINCE INITIAL TIME)
     ---------------------------------------------------------------------------
 LAKE       PRECIP       EVAP       RUNOFF
   1     1.7877E+08  1.5873E+08  0.0000E+00

            GROUND WATER            SURFACE WATER
 LAKE    INFLOW     OUTFLOW      INFLOW     OUTFLOW
   1  2.3368E+08  1.6927E+07  0.0000E+00  0.0000E+00

         WATER    CONNECTED LAKE
 LAKE     USE         INFLUX
   1   0.0000E+00   0.0000E+00
 --------------------------------------------------------------------------------

 
 SOLVING FOR HEAD 
 ALL LAKES CONVERGED AFTER   2  ITERATIONS
 ALL LAKES CONVERGED AFTER   2  ITERATIONS
 ALL LAKES CONVERGED AFTER   2  ITERATIONS
 ALL LAKES CONVERGED AFTER   2  ITERATIONS
 ALL LAKES CONVERGED AFTER   2  ITERATIONS
 ALL LAKES CONVERGED AFTER   2  ITERATIONS
 ALL LAKES CONVERGED AFTER   2  ITERATIONS
 ALL LAKES CONVERGED AFTER   2  ITERATIONS
 ALL LAKES CONVERGED AFTER   2  ITERATIONS
 ALL LAKES CONVERGED AFTER   2  ITERATIONS
 ALL LAKES CONVERGED AFTER   2  ITERATIONS
 ALL LAKES CONVERGED AFTER   2  ITERATIONS
 ALL LAKES CONVERGED AFTER   2  ITERATIONS
 ALL LAKES CONVERGED AFTER   2  ITERATIONS
 ALL LAKES CONVERGED AFTER   2  ITERATIONS
 ALL LAKES CONVERGED AFTER   2  ITERATIONS
 ALL LAKES CONVERGED AFTER   2  ITERATIONS
 ALL LAKES CONVERGED AFTER   2  ITERATIONS
 ALL LAKES CONVERGED AFTER   2  ITERATIONS
 ALL LAKES CONVERGED AFTER   2  ITERATIONS
 ALL LAKES CONVERGED AFTER   1  ITERATIONS
 ALL LAKES CONVERGED AFTER   2  ITERATIONS
 ALL LAKES CONVERGED AFTER   2  ITERATIONS
 ALL LAKES CONVERGED AFTER   2  ITERATIONS
    24 ITERATIONS FOR TIME STEP  72 IN STRESS PERIOD    1

 MAXIMUM HEAD CHANGE FOR EACH ITERATION:

    HEAD CHANGE   HEAD CHANGE   HEAD CHANGE   HEAD CHANGE   HEAD CHANGE
  LAYER,ROW,COL LAYER,ROW,COL LAYER,ROW,COL LAYER,ROW,COL LAYER,ROW,COL
 ----------------------------------------------------------------------
     0.1258E-01    0.1006E-01    0.1088E-01    0.6437E-02    0.8499E-02
  (  3, 10,  9) (  5,  8, 10) (  5, 10,  8) (  3,  8, 10) (  3, 10,  8)
     0.4094E-02    0.3294E-02    0.2400E-02    0.3198E-02    0.1576E-02
  (  2,  7,  7) (  5, 10,  8) (  3,  8, 10) (  3, 10,  8) (  3,  8, 10)
     0.1914E-02    0.1049E-02    0.1123E-02    0.6354E-03    0.8280E-03
  (  2,  7,  7) (  5,  9,  9) (  5, 10,  8) (  3,  8, 10) (  3, 10,  8)
     0.3959E-03    0.3212E-03    0.2358E-03    0.3138E-03    0.1585E-03
  (  2,  7,  7) (  5, 10,  8) (  3,  8, 10) (  3, 10,  8) (  2,  8, 11)
     0.1878E-03    0.1078E-03    0.1034E-03    0.6045E-04
  (  2,  7,  7) (  5,  9,  9) (  5, 10,  8) (  3,  8, 10)


 HEAD/DRAWDOWN PRINTOUT FLAG = 0     TOTAL BUDGET PRINTOUT FLAG = 0
 CELL-BY-CELL FLOW TERM FLAG = 1

 OUTPUT FLAGS FOR ALL LAYERS ARE THE SAME:
   HEAD    DRAWDOWN  HEAD  DRAWDOWN
 PRINTOUT  PRINTOUT  SAVE    SAVE
 ----------------------------------
     0         0       0       0


     0  LAKE CELLS ARE DRY.

 PERIOD     1     TIME STEP    72     TIME STEP LENGTH  6.5329E+01
 PERIOD TIME  2.5311E+03     TOTAL SIMULATION TIME  2.5311E+03


                 HYDROLOGIC BUDGET SUMMARIES FOR SIMULATED LAKES
     (ALL FLUID FLUXES ARE VOLUMES ADDED TO THE LAKE DURING PRESENT TIME STEP)
     ----------------------------------------------------------------------------------------
 LAKE    STAGE       PRECIP         EVAP         RUNOFF
   1  1.479308E+02  4.736334E+06  4.205538E+06  0.000000E+00

            GROUND WATER            SURFACE WATER
 LAKE    INFLOW     OUTFLOW      INFLOW     OUTFLOW
   1  1.2497E+06  1.4541E+06  0.0000E+00  0.0000E+00

         WATER    CONNECTED LAKE   UPDATED     TIME-STEP          STAGE CHANGE
 LAKE     USE         INFLUX        VOLUME    SURFACE AREA   TIME STEP  CUMULATIVE
   1   0.0000E+00   0.0000E+00   2.7832E+08    6.2500E+06   5.2086E-02  3.7931E+01
 --------------------------------------------------------------------------------



            CUMULATIVE HYDROLOGIC BUDGET SUMMARIES FOR SIMULATED LAKES
     (ALL FLUID FLUXES ARE SUMS OF VOLUMES ADDED TO THE LAKE SINCE INITIAL TIME)
     ---------------------------------------------------------------------------
 LAKE       PRECIP       EVAP       RUNOFF
   1     1.8350E+08  1.6294E+08  0.0000E+00

            GROUND WATER            SURFACE WATER
 LAKE    INFLOW     OUTFLOW      INFLOW     OUTFLOW
   1  2.3493E+08  1.8381E+07  0.0000E+00  0.0000E+00

         WATER    CONNECTED LAKE
 LAKE     USE         INFLUX
   1   0.0000E+00   0.0000E+00
 --------------------------------------------------------------------------------

 
 SOLVING FOR HEAD 
 ALL LAKES CONVERGED AFTER   2  ITERATIONS
 ALL LAKES CONVERGED AFTER   2  ITERATIONS
 ALL LAKES CONVERGED AFTER   2  ITERATIONS
 ALL LAKES CONVERGED AFTER   2  ITERATIONS
 ALL LAKES CONVERGED AFTER   2  ITERATIONS
 ALL LAKES CONVERGED AFTER   2  ITERATIONS
 ALL LAKES CONVERGED AFTER   2  ITERATIONS
 ALL LAKES CONVERGED AFTER   2  ITERATIONS
 ALL LAKES CONVERGED AFTER   2  ITERATIONS
 ALL LAKES CONVERGED AFTER   2  ITERATIONS
 ALL LAKES CONVERGED AFTER   2  ITERATIONS
 ALL LAKES CONVERGED AFTER   2  ITERATIONS
 ALL LAKES CONVERGED AFTER   2  ITERATIONS
 ALL LAKES CONVERGED AFTER   2  ITERATIONS
 ALL LAKES CONVERGED AFTER   2  ITERATIONS
 ALL LAKES CONVERGED AFTER   2  ITERATIONS
 ALL LAKES CONVERGED AFTER   2  ITERATIONS
 ALL LAKES CONVERGED AFTER   2  ITERATIONS
 ALL LAKES CONVERGED AFTER   2  ITERATIONS
 ALL LAKES CONVERGED AFTER   2  ITERATIONS
 ALL LAKES CONVERGED AFTER   1  ITERATIONS
 ALL LAKES CONVERGED AFTER   2  ITERATIONS
    22 ITERATIONS FOR TIME STEP  73 IN STRESS PERIOD    1

 MAXIMUM HEAD CHANGE FOR EACH ITERATION:

    HEAD CHANGE   HEAD CHANGE   HEAD CHANGE   HEAD CHANGE   HEAD CHANGE
  LAYER,ROW,COL LAYER,ROW,COL LAYER,ROW,COL LAYER,ROW,COL LAYER,ROW,COL
 ----------------------------------------------------------------------
     0.1107E-01    0.8866E-02    0.9621E-02    0.5730E-02    0.7572E-02
  (  3, 10,  9) (  5,  8, 10) (  5, 10,  8) (  3,  8, 10) (  3, 10,  8)
     0.3663E-02    0.2960E-02    0.2173E-02    0.2892E-02    0.1437E-02
  (  2,  7,  7) (  5, 10,  8) (  3,  8, 10) (  3, 10,  8) (  2,  8, 11)
     0.1737E-02    0.9607E-03    0.1025E-02    0.5850E-03    0.7677E-03
  (  2,  7,  7) (  5,  9,  9) (  5, 10,  8) (  3,  8, 10) (  3, 10,  8)
     0.3680E-03    0.2988E-03    0.2211E-03    0.2955E-03    0.1485E-03
  (  2,  7,  7) (  5, 10,  8) (  2,  9, 11) (  3, 10,  8) (  2,  8, 11)
     0.1779E-03    0.9766E-04
  (  2,  7,  7) (  5,  9,  9)


 HEAD/DRAWDOWN PRINTOUT FLAG = 0     TOTAL BUDGET PRINTOUT FLAG = 0
 CELL-BY-CELL FLOW TERM FLAG = 1

 OUTPUT FLAGS FOR ALL LAYERS ARE THE SAME:
   HEAD    DRAWDOWN  HEAD  DRAWDOWN
 PRINTOUT  PRINTOUT  SAVE    SAVE
 ----------------------------------
     0         0       0       0


     0  LAKE CELLS ARE DRY.

 PERIOD     1     TIME STEP    73     TIME STEP LENGTH  6.6635E+01
 PERIOD TIME  2.5977E+03     TOTAL SIMULATION TIME  2.5977E+03


                 HYDROLOGIC BUDGET SUMMARIES FOR SIMULATED LAKES
     (ALL FLUID FLUXES ARE VOLUMES ADDED TO THE LAKE DURING PRESENT TIME STEP)
     ----------------------------------------------------------------------------------------
 LAKE    STAGE       PRECIP         EVAP         RUNOFF
   1  1.479769E+02  4.831060E+06  4.289648E+06  0.000000E+00

            GROUND WATER            SURFACE WATER
 LAKE    INFLOW     OUTFLOW      INFLOW     OUTFLOW
   1  1.2558E+06  1.5061E+06  0.0000E+00  0.0000E+00

         WATER    CONNECTED LAKE   UPDATED     TIME-STEP          STAGE CHANGE
 LAKE     USE         INFLUX        VOLUME    SURFACE AREA   TIME STEP  CUMULATIVE
   1   0.0000E+00   0.0000E+00   2.7861E+08    6.2500E+06   4.6131E-02  3.7977E+01
 --------------------------------------------------------------------------------



            CUMULATIVE HYDROLOGIC BUDGET SUMMARIES FOR SIMULATED LAKES
     (ALL FLUID FLUXES ARE SUMS OF VOLUMES ADDED TO THE LAKE SINCE INITIAL TIME)
     ---------------------------------------------------------------------------
 LAKE       PRECIP       EVAP       RUNOFF
   1     1.8833E+08  1.6723E+08  0.0000E+00

            GROUND WATER            SURFACE WATER
 LAKE    INFLOW     OUTFLOW      INFLOW     OUTFLOW
   1  2.3618E+08  1.9887E+07  0.0000E+00  0.0000E+00

         WATER    CONNECTED LAKE
 LAKE     USE         INFLUX
   1   0.0000E+00   0.0000E+00
 --------------------------------------------------------------------------------

 
 SOLVING FOR HEAD 
 ALL LAKES CONVERGED AFTER   2  ITERATIONS
 ALL LAKES CONVERGED AFTER   2  ITERATIONS
 ALL LAKES CONVERGED AFTER   2  ITERATIONS
 ALL LAKES CONVERGED AFTER   2  ITERATIONS
 ALL LAKES CONVERGED AFTER   2  ITERATIONS
 ALL LAKES CONVERGED AFTER   2  ITERATIONS
 ALL LAKES CONVERGED AFTER   2  ITERATIONS
 ALL LAKES CONVERGED AFTER   2  ITERATIONS
 ALL LAKES CONVERGED AFTER   2  ITERATIONS
 ALL LAKES CONVERGED AFTER   2  ITERATIONS
 ALL LAKES CONVERGED AFTER   2  ITERATIONS
 ALL LAKES CONVERGED AFTER   2  ITERATIONS
 ALL LAKES CONVERGED AFTER   2  ITERATIONS
 ALL LAKES CONVERGED AFTER   2  ITERATIONS
 ALL LAKES CONVERGED AFTER   2  ITERATIONS
 ALL LAKES CONVERGED AFTER   2  ITERATIONS
 ALL LAKES CONVERGED AFTER   2  ITERATIONS
 ALL LAKES CONVERGED AFTER   2  ITERATIONS
 ALL LAKES CONVERGED AFTER   2  ITERATIONS
 ALL LAKES CONVERGED AFTER   2  ITERATIONS
 ALL LAKES CONVERGED AFTER   1  ITERATIONS
 ALL LAKES CONVERGED AFTER   2  ITERATIONS
    22 ITERATIONS FOR TIME STEP  74 IN STRESS PERIOD    1

 MAXIMUM HEAD CHANGE FOR EACH ITERATION:

    HEAD CHANGE   HEAD CHANGE   HEAD CHANGE   HEAD CHANGE   HEAD CHANGE
  LAYER,ROW,COL LAYER,ROW,COL LAYER,ROW,COL LAYER,ROW,COL LAYER,ROW,COL
 ----------------------------------------------------------------------
     0.9676E-02    0.7784E-02    0.8468E-02    0.5065E-02    0.6714E-02
  (  3, 10,  8) (  4,  9, 11) (  5, 10,  8) (  3,  8, 10) (  3, 10,  8)
     0.3269E-02    0.2648E-02    0.1948E-02    0.2598E-02    0.1305E-02
  (  2,  7,  7) (  5, 10,  8) (  3,  8, 10) (  3, 10,  8) (  3,  8, 10)
     0.1575E-02    0.8733E-03    0.9374E-03    0.5344E-03    0.7074E-03
  (  3,  8,  8) (  5,  9,  9) (  5, 10,  8) (  3,  8, 10) (  3, 10,  8)
     0.3474E-03    0.2752E-03    0.2048E-03    0.2756E-03    0.1386E-03
  (  2,  7,  7) (  5, 10,  8) (  3,  8, 10) (  3, 10,  8) (  2,  8, 11)
     0.1625E-03    0.9709E-04
  (  2, 11, 11) (  5,  9,  9)


 HEAD/DRAWDOWN PRINTOUT FLAG = 0     TOTAL BUDGET PRINTOUT FLAG = 0
 CELL-BY-CELL FLOW TERM FLAG = 1

 OUTPUT FLAGS FOR ALL LAYERS ARE THE SAME:
   HEAD    DRAWDOWN  HEAD  DRAWDOWN
 PRINTOUT  PRINTOUT  SAVE    SAVE
 ----------------------------------
     0         0       0       0


     0  LAKE CELLS ARE DRY.

 PERIOD     1     TIME STEP    74     TIME STEP LENGTH  6.7968E+01
 PERIOD TIME  2.6657E+03     TOTAL SIMULATION TIME  2.6657E+03


                 HYDROLOGIC BUDGET SUMMARIES FOR SIMULATED LAKES
     (ALL FLUID FLUXES ARE VOLUMES ADDED TO THE LAKE DURING PRESENT TIME STEP)
     ----------------------------------------------------------------------------------------
 LAKE    STAGE       PRECIP         EVAP         RUNOFF
   1  1.480177E+02  4.927681E+06  4.375441E+06  0.000000E+00

            GROUND WATER            SURFACE WATER
 LAKE    INFLOW     OUTFLOW      INFLOW     OUTFLOW
   1  1.2634E+06  1.5573E+06  0.0000E+00  0.0000E+00

         WATER    CONNECTED LAKE   UPDATED     TIME-STEP          STAGE CHANGE
 LAKE     USE         INFLUX        VOLUME    SURFACE AREA   TIME STEP  CUMULATIVE
   1   0.0000E+00   0.0000E+00   2.7886E+08    6.2500E+06   4.0806E-02  3.8018E+01
 --------------------------------------------------------------------------------



            CUMULATIVE HYDROLOGIC BUDGET SUMMARIES FOR SIMULATED LAKES
     (ALL FLUID FLUXES ARE SUMS OF VOLUMES ADDED TO THE LAKE SINCE INITIAL TIME)
     ---------------------------------------------------------------------------
 LAKE       PRECIP       EVAP       RUNOFF
   1     1.9326E+08  1.7160E+08  0.0000E+00

            GROUND WATER            SURFACE WATER
 LAKE    INFLOW     OUTFLOW      INFLOW     OUTFLOW
   1  2.3745E+08  2.1444E+07  0.0000E+00  0.0000E+00

         WATER    CONNECTED LAKE
 LAKE     USE         INFLUX
   1   0.0000E+00   0.0000E+00
 --------------------------------------------------------------------------------

 
 SOLVING FOR HEAD 
 ALL LAKES CONVERGED AFTER   2  ITERATIONS
 ALL LAKES CONVERGED AFTER   2  ITERATIONS
 ALL LAKES CONVERGED AFTER   2  ITERATIONS
 ALL LAKES CONVERGED AFTER   2  ITERATIONS
 ALL LAKES CONVERGED AFTER   2  ITERATIONS
 ALL LAKES CONVERGED AFTER   2  ITERATIONS
 ALL LAKES CONVERGED AFTER   2  ITERATIONS
 ALL LAKES CONVERGED AFTER   2  ITERATIONS
 ALL LAKES CONVERGED AFTER   2  ITERATIONS
 ALL LAKES CONVERGED AFTER   2  ITERATIONS
 ALL LAKES CONVERGED AFTER   2  ITERATIONS
 ALL LAKES CONVERGED AFTER   2  ITERATIONS
 ALL LAKES CONVERGED AFTER   2  ITERATIONS
 ALL LAKES CONVERGED AFTER   2  ITERATIONS
 ALL LAKES CONVERGED AFTER   2  ITERATIONS
 ALL LAKES CONVERGED AFTER   2  ITERATIONS
 ALL LAKES CONVERGED AFTER   2  ITERATIONS
 ALL LAKES CONVERGED AFTER   2  ITERATIONS
 ALL LAKES CONVERGED AFTER   2  ITERATIONS
 ALL LAKES CONVERGED AFTER   2  ITERATIONS
 ALL LAKES CONVERGED AFTER   1  ITERATIONS
 ALL LAKES CONVERGED AFTER   2  ITERATIONS
    22 ITERATIONS FOR TIME STEP  75 IN STRESS PERIOD    1

 MAXIMUM HEAD CHANGE FOR EACH ITERATION:

    HEAD CHANGE   HEAD CHANGE   HEAD CHANGE   HEAD CHANGE   HEAD CHANGE
  LAYER,ROW,COL LAYER,ROW,COL LAYER,ROW,COL LAYER,ROW,COL LAYER,ROW,COL
 ----------------------------------------------------------------------
     0.8431E-02    0.6819E-02    0.7436E-02    0.4479E-02    0.5926E-02
  (  3, 10,  8) (  5,  8, 10) (  5, 10,  8) (  3,  8, 10) (  3, 10,  8)
     0.2905E-02    0.2370E-02    0.1743E-02    0.2332E-02    0.1174E-02
  (  2,  7,  7) (  5, 10,  8) (  3,  8, 10) (  3, 10,  8) (  3,  8, 10)
     0.1418E-02    0.7858E-03    0.8498E-03    0.4934E-03    0.6475E-03
  (  2,  7,  7) (  5,  9,  9) (  5, 10,  8) (  3,  8, 10) (  3, 10,  8)
     0.3189E-03    0.2620E-03    0.1908E-03    0.2475E-03    0.1303E-03
  (  2,  7,  7) (  5, 10,  8) (  2,  9, 11) (  3, 10,  8) (  3,  8, 10)
     0.1512E-03    0.9190E-04
  (  2,  7,  7) (  4, 10, 11)


 HEAD/DRAWDOWN PRINTOUT FLAG = 0     TOTAL BUDGET PRINTOUT FLAG = 0
 CELL-BY-CELL FLOW TERM FLAG = 1

 OUTPUT FLAGS FOR ALL LAYERS ARE THE SAME:
   HEAD    DRAWDOWN  HEAD  DRAWDOWN
 PRINTOUT  PRINTOUT  SAVE    SAVE
 ----------------------------------
     0         0       0       0


     0  LAKE CELLS ARE DRY.

 PERIOD     1     TIME STEP    75     TIME STEP LENGTH  6.9327E+01
 PERIOD TIME  2.7350E+03     TOTAL SIMULATION TIME  2.7350E+03


                 HYDROLOGIC BUDGET SUMMARIES FOR SIMULATED LAKES
     (ALL FLUID FLUXES ARE VOLUMES ADDED TO THE LAKE DURING PRESENT TIME STEP)
     ----------------------------------------------------------------------------------------
 LAKE    STAGE       PRECIP         EVAP         RUNOFF
   1  1.480539E+02  5.026235E+06  4.462950E+06  0.000000E+00

            GROUND WATER            SURFACE WATER
 LAKE    INFLOW     OUTFLOW      INFLOW     OUTFLOW
   1  1.2728E+06  1.6074E+06  0.0000E+00  0.0000E+00

         WATER    CONNECTED LAKE   UPDATED     TIME-STEP          STAGE CHANGE
 LAKE     USE         INFLUX        VOLUME    SURFACE AREA   TIME STEP  CUMULATIVE
   1   0.0000E+00   0.0000E+00   2.7909E+08    6.2500E+06   3.6150E-02  3.8054E+01
 --------------------------------------------------------------------------------



            CUMULATIVE HYDROLOGIC BUDGET SUMMARIES FOR SIMULATED LAKES
     (ALL FLUID FLUXES ARE SUMS OF VOLUMES ADDED TO THE LAKE SINCE INITIAL TIME)
     ---------------------------------------------------------------------------
 LAKE       PRECIP       EVAP       RUNOFF
   1     1.9829E+08  1.7607E+08  0.0000E+00

            GROUND WATER            SURFACE WATER
 LAKE    INFLOW     OUTFLOW      INFLOW     OUTFLOW
   1  2.3872E+08  2.3052E+07  0.0000E+00  0.0000E+00

         WATER    CONNECTED LAKE
 LAKE     USE         INFLUX
   1   0.0000E+00   0.0000E+00
 --------------------------------------------------------------------------------

 
 SOLVING FOR HEAD 
 ALL LAKES CONVERGED AFTER   2  ITERATIONS
 ALL LAKES CONVERGED AFTER   2  ITERATIONS
 ALL LAKES CONVERGED AFTER   2  ITERATIONS
 ALL LAKES CONVERGED AFTER   2  ITERATIONS
 ALL LAKES CONVERGED AFTER   2  ITERATIONS
 ALL LAKES CONVERGED AFTER   2  ITERATIONS
 ALL LAKES CONVERGED AFTER   2  ITERATIONS
 ALL LAKES CONVERGED AFTER   2  ITERATIONS
 ALL LAKES CONVERGED AFTER   2  ITERATIONS
 ALL LAKES CONVERGED AFTER   2  ITERATIONS
 ALL LAKES CONVERGED AFTER   2  ITERATIONS
 ALL LAKES CONVERGED AFTER   2  ITERATIONS
 ALL LAKES CONVERGED AFTER   2  ITERATIONS
 ALL LAKES CONVERGED AFTER   2  ITERATIONS
 ALL LAKES CONVERGED AFTER   2  ITERATIONS
 ALL LAKES CONVERGED AFTER   2  ITERATIONS
 ALL LAKES CONVERGED AFTER   2  ITERATIONS
 ALL LAKES CONVERGED AFTER   2  ITERATIONS
 ALL LAKES CONVERGED AFTER   2  ITERATIONS
 ALL LAKES CONVERGED AFTER   2  ITERATIONS
 ALL LAKES CONVERGED AFTER   1  ITERATIONS
 ALL LAKES CONVERGED AFTER   2  ITERATIONS
    22 ITERATIONS FOR TIME STEP  76 IN STRESS PERIOD    1

 MAXIMUM HEAD CHANGE FOR EACH ITERATION:

    HEAD CHANGE   HEAD CHANGE   HEAD CHANGE   HEAD CHANGE   HEAD CHANGE
  LAYER,ROW,COL LAYER,ROW,COL LAYER,ROW,COL LAYER,ROW,COL LAYER,ROW,COL
 ----------------------------------------------------------------------
     0.7369E-02    0.5967E-02    0.6532E-02    0.3954E-02    0.5248E-02
  (  3, 10,  8) (  5,  8, 10) (  5, 10,  8) (  3,  8, 10) (  3, 10,  8)
     0.2579E-02    0.2107E-02    0.1567E-02    0.2093E-02    0.1054E-02
  (  2,  7,  7) (  5, 10,  8) (  3,  8, 10) (  3, 10,  8) (  3,  8, 10)
     0.1286E-02    0.7189E-03    0.7706E-03    0.4533E-03    0.5980E-03
  (  2,  7,  7) (  5,  9,  9) (  5, 10,  8) (  3,  8, 10) (  3, 10,  8)
     0.2888E-03    0.2394E-03    0.1742E-03    0.2280E-03    0.1276E-03
  (  2,  7,  7) (  5, 10,  8) (  3,  8, 10) (  3, 10,  8) (  2,  7,  9)
     0.1489E-03    0.8611E-04
  (  2,  9,  7) (  5,  9,  9)


 HEAD/DRAWDOWN PRINTOUT FLAG = 0     TOTAL BUDGET PRINTOUT FLAG = 0
 CELL-BY-CELL FLOW TERM FLAG = 1

 OUTPUT FLAGS FOR ALL LAYERS ARE THE SAME:
   HEAD    DRAWDOWN  HEAD  DRAWDOWN
 PRINTOUT  PRINTOUT  SAVE    SAVE
 ----------------------------------
     0         0       0       0


     0  LAKE CELLS ARE DRY.

 PERIOD     1     TIME STEP    76     TIME STEP LENGTH  7.0714E+01
 PERIOD TIME  2.8057E+03     TOTAL SIMULATION TIME  2.8057E+03


                 HYDROLOGIC BUDGET SUMMARIES FOR SIMULATED LAKES
     (ALL FLUID FLUXES ARE VOLUMES ADDED TO THE LAKE DURING PRESENT TIME STEP)
     ----------------------------------------------------------------------------------------
 LAKE    STAGE       PRECIP         EVAP         RUNOFF
   1  1.480858E+02  5.126759E+06  4.552208E+06  0.000000E+00

            GROUND WATER            SURFACE WATER
 LAKE    INFLOW     OUTFLOW      INFLOW     OUTFLOW
   1  1.2840E+06  1.6567E+06  0.0000E+00  0.0000E+00

         WATER    CONNECTED LAKE   UPDATED     TIME-STEP          STAGE CHANGE
 LAKE     USE         INFLUX        VOLUME    SURFACE AREA   TIME STEP  CUMULATIVE
   1   0.0000E+00   0.0000E+00   2.7929E+08    6.2500E+06   3.1918E-02  3.8086E+01
 --------------------------------------------------------------------------------



            CUMULATIVE HYDROLOGIC BUDGET SUMMARIES FOR SIMULATED LAKES
     (ALL FLUID FLUXES ARE SUMS OF VOLUMES ADDED TO THE LAKE SINCE INITIAL TIME)
     ---------------------------------------------------------------------------
 LAKE       PRECIP       EVAP       RUNOFF
   1     2.0342E+08  1.8062E+08  0.0000E+00

            GROUND WATER            SURFACE WATER
 LAKE    INFLOW     OUTFLOW      INFLOW     OUTFLOW
   1  2.4000E+08  2.4709E+07  0.0000E+00  0.0000E+00

         WATER    CONNECTED LAKE
 LAKE     USE         INFLUX
   1   0.0000E+00   0.0000E+00
 --------------------------------------------------------------------------------

 
 SOLVING FOR HEAD 
 ALL LAKES CONVERGED AFTER   2  ITERATIONS
 ALL LAKES CONVERGED AFTER   2  ITERATIONS
 ALL LAKES CONVERGED AFTER   2  ITERATIONS
 ALL LAKES CONVERGED AFTER   2  ITERATIONS
 ALL LAKES CONVERGED AFTER   2  ITERATIONS
 ALL LAKES CONVERGED AFTER   2  ITERATIONS
 ALL LAKES CONVERGED AFTER   2  ITERATIONS
 ALL LAKES CONVERGED AFTER   2  ITERATIONS
 ALL LAKES CONVERGED AFTER   2  ITERATIONS
 ALL LAKES CONVERGED AFTER   2  ITERATIONS
 ALL LAKES CONVERGED AFTER   2  ITERATIONS
 ALL LAKES CONVERGED AFTER   2  ITERATIONS
 ALL LAKES CONVERGED AFTER   2  ITERATIONS
 ALL LAKES CONVERGED AFTER   2  ITERATIONS
 ALL LAKES CONVERGED AFTER   2  ITERATIONS
 ALL LAKES CONVERGED AFTER   2  ITERATIONS
 ALL LAKES CONVERGED AFTER   2  ITERATIONS
 ALL LAKES CONVERGED AFTER   2  ITERATIONS
 ALL LAKES CONVERGED AFTER   2  ITERATIONS
 ALL LAKES CONVERGED AFTER   2  ITERATIONS
 ALL LAKES CONVERGED AFTER   1  ITERATIONS
 ALL LAKES CONVERGED AFTER   2  ITERATIONS
    22 ITERATIONS FOR TIME STEP  77 IN STRESS PERIOD    1

 MAXIMUM HEAD CHANGE FOR EACH ITERATION:

    HEAD CHANGE   HEAD CHANGE   HEAD CHANGE   HEAD CHANGE   HEAD CHANGE
  LAYER,ROW,COL LAYER,ROW,COL LAYER,ROW,COL LAYER,ROW,COL LAYER,ROW,COL
 ----------------------------------------------------------------------
     0.6411E-02    0.5214E-02    0.5728E-02    0.3480E-02    0.4619E-02
  (  3, 10,  8) (  5,  8, 10) (  5, 10,  8) (  3,  8, 10) (  3, 10,  8)
     0.2290E-02    0.1876E-02    0.1394E-02    0.1875E-02    0.9514E-03
  (  2,  7,  7) (  5, 10,  8) (  3,  8, 10) (  3, 10,  8) (  2,  8, 11)
     0.1155E-02    0.6526E-03    0.7014E-03    0.4032E-03    0.5381E-03
  (  2,  7,  7) (  5,  9,  9) (  5, 10,  8) (  3,  8, 10) (  3, 10,  8)
     0.2705E-03    0.2176E-03    0.1638E-03    0.2180E-03    0.1104E-03
  (  2,  7,  7) (  5, 10,  8) (  3,  8, 10) (  3, 10,  8) (  3,  8, 10)
     0.1325E-03    0.7593E-04
  (  2,  7,  7) (  5,  9,  9)


 HEAD/DRAWDOWN PRINTOUT FLAG = 0     TOTAL BUDGET PRINTOUT FLAG = 0
 CELL-BY-CELL FLOW TERM FLAG = 1

 OUTPUT FLAGS FOR ALL LAYERS ARE THE SAME:
   HEAD    DRAWDOWN  HEAD  DRAWDOWN
 PRINTOUT  PRINTOUT  SAVE    SAVE
 ----------------------------------
     0         0       0       0


     0  LAKE CELLS ARE DRY.

 PERIOD     1     TIME STEP    77     TIME STEP LENGTH  7.2128E+01
 PERIOD TIME  2.8779E+03     TOTAL SIMULATION TIME  2.8779E+03


                 HYDROLOGIC BUDGET SUMMARIES FOR SIMULATED LAKES
     (ALL FLUID FLUXES ARE VOLUMES ADDED TO THE LAKE DURING PRESENT TIME STEP)
     ----------------------------------------------------------------------------------------
 LAKE    STAGE       PRECIP         EVAP         RUNOFF
   1  1.481139E+02  5.229294E+06  4.643253E+06  0.000000E+00

            GROUND WATER            SURFACE WATER
 LAKE    INFLOW     OUTFLOW      INFLOW     OUTFLOW
   1  1.2968E+06  1.7053E+06  0.0000E+00  0.0000E+00

         WATER    CONNECTED LAKE   UPDATED     TIME-STEP          STAGE CHANGE
 LAKE     USE         INFLUX        VOLUME    SURFACE AREA   TIME STEP  CUMULATIVE
   1   0.0000E+00   0.0000E+00   2.7946E+08    6.2500E+06   2.8083E-02  3.8114E+01
 --------------------------------------------------------------------------------



            CUMULATIVE HYDROLOGIC BUDGET SUMMARIES FOR SIMULATED LAKES
     (ALL FLUID FLUXES ARE SUMS OF VOLUMES ADDED TO THE LAKE SINCE INITIAL TIME)
     ---------------------------------------------------------------------------
 LAKE       PRECIP       EVAP       RUNOFF
   1     2.0864E+08  1.8526E+08  0.0000E+00

            GROUND WATER            SURFACE WATER
 LAKE    INFLOW     OUTFLOW      INFLOW     OUTFLOW
   1  2.4130E+08  2.6414E+07  0.0000E+00  0.0000E+00

         WATER    CONNECTED LAKE
 LAKE     USE         INFLUX
   1   0.0000E+00   0.0000E+00
 --------------------------------------------------------------------------------

 
 SOLVING FOR HEAD 
 ALL LAKES CONVERGED AFTER   2  ITERATIONS
 ALL LAKES CONVERGED AFTER   2  ITERATIONS
 ALL LAKES CONVERGED AFTER   2  ITERATIONS
 ALL LAKES CONVERGED AFTER   2  ITERATIONS
 ALL LAKES CONVERGED AFTER   2  ITERATIONS
 ALL LAKES CONVERGED AFTER   2  ITERATIONS
 ALL LAKES CONVERGED AFTER   2  ITERATIONS
 ALL LAKES CONVERGED AFTER   2  ITERATIONS
 ALL LAKES CONVERGED AFTER   2  ITERATIONS
 ALL LAKES CONVERGED AFTER   2  ITERATIONS
 ALL LAKES CONVERGED AFTER   2  ITERATIONS
 ALL LAKES CONVERGED AFTER   2  ITERATIONS
 ALL LAKES CONVERGED AFTER   2  ITERATIONS
 ALL LAKES CONVERGED AFTER   2  ITERATIONS
 ALL LAKES CONVERGED AFTER   2  ITERATIONS
 ALL LAKES CONVERGED AFTER   2  ITERATIONS
 ALL LAKES CONVERGED AFTER   2  ITERATIONS
 ALL LAKES CONVERGED AFTER   2  ITERATIONS
 ALL LAKES CONVERGED AFTER   2  ITERATIONS
 ALL LAKES CONVERGED AFTER   2  ITERATIONS
 ALL LAKES CONVERGED AFTER   1  ITERATIONS
 ALL LAKES CONVERGED AFTER   2  ITERATIONS
    22 ITERATIONS FOR TIME STEP  78 IN STRESS PERIOD    1

 MAXIMUM HEAD CHANGE FOR EACH ITERATION:

    HEAD CHANGE   HEAD CHANGE   HEAD CHANGE   HEAD CHANGE   HEAD CHANGE
  LAYER,ROW,COL LAYER,ROW,COL LAYER,ROW,COL LAYER,ROW,COL LAYER,ROW,COL
 ----------------------------------------------------------------------
     0.5552E-02    0.4536E-02    0.4984E-02    0.3047E-02    0.4051E-02
  (  3, 10,  8) (  5,  8, 10) (  5, 10,  8) (  3,  8, 10) (  3, 10,  8)
     0.2012E-02    0.1658E-02    0.1240E-02    0.1665E-02    0.8523E-03
  (  2,  7,  7) (  5, 10,  8) (  3,  8, 10) (  3, 10,  8) (  2,  8, 11)
     0.1033E-02    0.5869E-03    0.6331E-03    0.3727E-03    0.4881E-03
  (  2,  7,  7) (  5,  9,  9) (  5, 10,  8) (  3,  8, 10) (  3, 10,  8)
     0.2417E-03    0.1963E-03    0.1531E-03    0.1991E-03    0.1003E-03
  (  2,  7,  7) (  5,  8,  7) (  3,  8, 10) (  3, 10,  8) (  3,  8, 10)
     0.1226E-03    0.7536E-04
  (  2,  7,  7) (  5,  9,  9)


 HEAD/DRAWDOWN PRINTOUT FLAG = 0     TOTAL BUDGET PRINTOUT FLAG = 0
 CELL-BY-CELL FLOW TERM FLAG = 1

 OUTPUT FLAGS FOR ALL LAYERS ARE THE SAME:
   HEAD    DRAWDOWN  HEAD  DRAWDOWN
 PRINTOUT  PRINTOUT  SAVE    SAVE
 ----------------------------------
     0         0       0       0


     0  LAKE CELLS ARE DRY.

 PERIOD     1     TIME STEP    78     TIME STEP LENGTH  7.3571E+01
 PERIOD TIME  2.9514E+03     TOTAL SIMULATION TIME  2.9514E+03


                 HYDROLOGIC BUDGET SUMMARIES FOR SIMULATED LAKES
     (ALL FLUID FLUXES ARE VOLUMES ADDED TO THE LAKE DURING PRESENT TIME STEP)
     ----------------------------------------------------------------------------------------
 LAKE    STAGE       PRECIP         EVAP         RUNOFF
   1  1.481384E+02  5.333880E+06  4.736118E+06  0.000000E+00

            GROUND WATER            SURFACE WATER
 LAKE    INFLOW     OUTFLOW      INFLOW     OUTFLOW
   1  1.3112E+06  1.7533E+06  0.0000E+00  0.0000E+00

         WATER    CONNECTED LAKE   UPDATED     TIME-STEP          STAGE CHANGE
 LAKE     USE         INFLUX        VOLUME    SURFACE AREA   TIME STEP  CUMULATIVE
   1   0.0000E+00   0.0000E+00   2.7961E+08    6.2500E+06   2.4504E-02  3.8138E+01
 --------------------------------------------------------------------------------



            CUMULATIVE HYDROLOGIC BUDGET SUMMARIES FOR SIMULATED LAKES
     (ALL FLUID FLUXES ARE SUMS OF VOLUMES ADDED TO THE LAKE SINCE INITIAL TIME)
     ---------------------------------------------------------------------------
 LAKE       PRECIP       EVAP       RUNOFF
   1     2.1398E+08  1.9000E+08  0.0000E+00

            GROUND WATER            SURFACE WATER
 LAKE    INFLOW     OUTFLOW      INFLOW     OUTFLOW
   1  2.4261E+08  2.8167E+07  0.0000E+00  0.0000E+00

         WATER    CONNECTED LAKE
 LAKE     USE         INFLUX
   1   0.0000E+00   0.0000E+00
 --------------------------------------------------------------------------------

 
 SOLVING FOR HEAD 
 ALL LAKES CONVERGED AFTER   2  ITERATIONS
 ALL LAKES CONVERGED AFTER   2  ITERATIONS
 ALL LAKES CONVERGED AFTER   2  ITERATIONS
 ALL LAKES CONVERGED AFTER   2  ITERATIONS
 ALL LAKES CONVERGED AFTER   2  ITERATIONS
 ALL LAKES CONVERGED AFTER   2  ITERATIONS
 ALL LAKES CONVERGED AFTER   2  ITERATIONS
 ALL LAKES CONVERGED AFTER   2  ITERATIONS
 ALL LAKES CONVERGED AFTER   2  ITERATIONS
 ALL LAKES CONVERGED AFTER   2  ITERATIONS
 ALL LAKES CONVERGED AFTER   2  ITERATIONS
 ALL LAKES CONVERGED AFTER   2  ITERATIONS
 ALL LAKES CONVERGED AFTER   2  ITERATIONS
 ALL LAKES CONVERGED AFTER   2  ITERATIONS
 ALL LAKES CONVERGED AFTER   2  ITERATIONS
 ALL LAKES CONVERGED AFTER   2  ITERATIONS
 ALL LAKES CONVERGED AFTER   2  ITERATIONS
 ALL LAKES CONVERGED AFTER   2  ITERATIONS
 ALL LAKES CONVERGED AFTER   2  ITERATIONS
 ALL LAKES CONVERGED AFTER   2  ITERATIONS
    20 ITERATIONS FOR TIME STEP  79 IN STRESS PERIOD    1

 MAXIMUM HEAD CHANGE FOR EACH ITERATION:

    HEAD CHANGE   HEAD CHANGE   HEAD CHANGE   HEAD CHANGE   HEAD CHANGE
  LAYER,ROW,COL LAYER,ROW,COL LAYER,ROW,COL LAYER,ROW,COL LAYER,ROW,COL
 ----------------------------------------------------------------------
     0.4772E-02    0.3914E-02    0.4315E-02    0.2653E-02    0.3532E-02
  (  3, 10,  8) (  5,  8, 10) (  5, 10,  8) (  3,  8, 10) (  3, 10,  8)
     0.1764E-02    0.1462E-02    0.1096E-02    0.1466E-02    0.7533E-03
  (  2,  7,  7) (  5, 10,  8) (  3,  8, 10) (  3, 10,  8) (  2,  8, 11)
     0.9185E-03    0.5225E-03    0.5655E-03    0.3326E-03    0.4384E-03
  (  3,  8,  8) (  5,  9,  9) (  5, 10,  8) (  3,  8, 10) (  3, 10,  8)
     0.2223E-03    0.1831E-03    0.1404E-03    0.1809E-03    0.9831E-04
  (  2,  7,  7) (  5, 10,  8) (  2,  9, 11) (  3, 10,  8) (  2,  7, 11)


 HEAD/DRAWDOWN PRINTOUT FLAG = 0     TOTAL BUDGET PRINTOUT FLAG = 0
 CELL-BY-CELL FLOW TERM FLAG = 1

 OUTPUT FLAGS FOR ALL LAYERS ARE THE SAME:
   HEAD    DRAWDOWN  HEAD  DRAWDOWN
 PRINTOUT  PRINTOUT  SAVE    SAVE
 ----------------------------------
     0         0       0       0


     0  LAKE CELLS ARE DRY.

 PERIOD     1     TIME STEP    79     TIME STEP LENGTH  7.5042E+01
 PERIOD TIME  3.0265E+03     TOTAL SIMULATION TIME  3.0265E+03


                 HYDROLOGIC BUDGET SUMMARIES FOR SIMULATED LAKES
     (ALL FLUID FLUXES ARE VOLUMES ADDED TO THE LAKE DURING PRESENT TIME STEP)
     ----------------------------------------------------------------------------------------
 LAKE    STAGE       PRECIP         EVAP         RUNOFF
   1  1.481597E+02  5.440558E+06  4.830840E+06  0.000000E+00

            GROUND WATER            SURFACE WATER
 LAKE    INFLOW     OUTFLOW      INFLOW     OUTFLOW
   1  1.3259E+06  1.8014E+06  0.0000E+00  0.0000E+00

         WATER    CONNECTED LAKE   UPDATED     TIME-STEP          STAGE CHANGE
 LAKE     USE         INFLUX        VOLUME    SURFACE AREA   TIME STEP  CUMULATIVE
   1   0.0000E+00   0.0000E+00   2.7975E+08    6.2500E+06   2.1297E-02  3.8160E+01
 --------------------------------------------------------------------------------



            CUMULATIVE HYDROLOGIC BUDGET SUMMARIES FOR SIMULATED LAKES
     (ALL FLUID FLUXES ARE SUMS OF VOLUMES ADDED TO THE LAKE SINCE INITIAL TIME)
     ---------------------------------------------------------------------------
 LAKE       PRECIP       EVAP       RUNOFF
   1     2.1942E+08  1.9483E+08  0.0000E+00

            GROUND WATER            SURFACE WATER
 LAKE    INFLOW     OUTFLOW      INFLOW     OUTFLOW
   1  2.4394E+08  2.9968E+07  0.0000E+00  0.0000E+00

         WATER    CONNECTED LAKE
 LAKE     USE         INFLUX
   1   0.0000E+00   0.0000E+00
 --------------------------------------------------------------------------------

 
 SOLVING FOR HEAD 
 ALL LAKES CONVERGED AFTER   2  ITERATIONS
 ALL LAKES CONVERGED AFTER   2  ITERATIONS
 ALL LAKES CONVERGED AFTER   2  ITERATIONS
 ALL LAKES CONVERGED AFTER   2  ITERATIONS
 ALL LAKES CONVERGED AFTER   2  ITERATIONS
 ALL LAKES CONVERGED AFTER   2  ITERATIONS
 ALL LAKES CONVERGED AFTER   2  ITERATIONS
 ALL LAKES CONVERGED AFTER   2  ITERATIONS
 ALL LAKES CONVERGED AFTER   2  ITERATIONS
 ALL LAKES CONVERGED AFTER   2  ITERATIONS
 ALL LAKES CONVERGED AFTER   2  ITERATIONS
 ALL LAKES CONVERGED AFTER   2  ITERATIONS
 ALL LAKES CONVERGED AFTER   2  ITERATIONS
 ALL LAKES CONVERGED AFTER   2  ITERATIONS
 ALL LAKES CONVERGED AFTER   2  ITERATIONS
 ALL LAKES CONVERGED AFTER   2  ITERATIONS
 ALL LAKES CONVERGED AFTER   2  ITERATIONS
 ALL LAKES CONVERGED AFTER   2  ITERATIONS
 ALL LAKES CONVERGED AFTER   2  ITERATIONS
 ALL LAKES CONVERGED AFTER   2  ITERATIONS
    20 ITERATIONS FOR TIME STEP  80 IN STRESS PERIOD    1

 MAXIMUM HEAD CHANGE FOR EACH ITERATION:

    HEAD CHANGE   HEAD CHANGE   HEAD CHANGE   HEAD CHANGE   HEAD CHANGE
  LAYER,ROW,COL LAYER,ROW,COL LAYER,ROW,COL LAYER,ROW,COL LAYER,ROW,COL
 ----------------------------------------------------------------------
     0.4139E-02    0.3387E-02    0.3747E-02    0.2310E-02    0.3083E-02
  (  3,  8,  8) (  5,  8, 10) (  5, 10,  8) (  3,  8, 10) (  3, 10,  8)
     0.1544E-02    0.1279E-02    0.9629E-03    0.1305E-02    0.6790E-03
  (  2,  7,  7) (  5, 10,  8) (  3,  8, 10) (  3, 10,  8) (  2,  7, 10)
     0.8167E-03    0.4674E-03    0.5018E-03    0.3023E-03    0.3985E-03
  (  2,  7,  7) (  5,  9,  9) (  5, 10,  8) (  3,  8, 10) (  3, 10,  8)
     0.2018E-03    0.1701E-03    0.1280E-03    0.1716E-03    0.8910E-04
  (  2,  7,  7) (  5, 11, 10) (  2,  7, 11) (  3, 10,  8) (  2,  8, 11)


 HEAD/DRAWDOWN PRINTOUT FLAG = 1     TOTAL BUDGET PRINTOUT FLAG = 1
 CELL-BY-CELL FLOW TERM FLAG = 1

 OUTPUT FLAGS FOR EACH LAYER:
          HEAD    DRAWDOWN  HEAD  DRAWDOWN
 LAYER  PRINTOUT  PRINTOUT  SAVE    SAVE
 -----------------------------------------
    1       0         0       0       0
    2       0         0       0       0
    3       0         0       0       0
    4       0         0       0       0
    5       1         0       0       0


     0  LAKE CELLS ARE DRY.

 PERIOD     1     TIME STEP    80     TIME STEP LENGTH  7.6543E+01
 PERIOD TIME  3.1030E+03     TOTAL SIMULATION TIME  3.1030E+03


                 HYDROLOGIC BUDGET SUMMARIES FOR SIMULATED LAKES
     (ALL FLUID FLUXES ARE VOLUMES ADDED TO THE LAKE DURING PRESENT TIME STEP)
     ----------------------------------------------------------------------------------------
 LAKE    STAGE       PRECIP         EVAP         RUNOFF
   1  1.481782E+02  5.549368E+06  4.927456E+06  0.000000E+00

            GROUND WATER            SURFACE WATER
 LAKE    INFLOW     OUTFLOW      INFLOW     OUTFLOW
   1  1.3436E+06  1.8483E+06  0.0000E+00  0.0000E+00

         WATER    CONNECTED LAKE   UPDATED     TIME-STEP          STAGE CHANGE
 LAKE     USE         INFLUX        VOLUME    SURFACE AREA   TIME STEP  CUMULATIVE
   1   0.0000E+00   0.0000E+00   2.7986E+08    6.2500E+06   1.8513E-02  3.8178E+01
 --------------------------------------------------------------------------------



            CUMULATIVE HYDROLOGIC BUDGET SUMMARIES FOR SIMULATED LAKES
     (ALL FLUID FLUXES ARE SUMS OF VOLUMES ADDED TO THE LAKE SINCE INITIAL TIME)
     ---------------------------------------------------------------------------
 LAKE       PRECIP       EVAP       RUNOFF
   1     2.2497E+08  1.9976E+08  0.0000E+00

            GROUND WATER            SURFACE WATER
 LAKE    INFLOW     OUTFLOW      INFLOW     OUTFLOW
   1  2.4528E+08  3.1817E+07  0.0000E+00  0.0000E+00

         WATER    CONNECTED LAKE
 LAKE     USE         INFLUX
   1   0.0000E+00   0.0000E+00
 --------------------------------------------------------------------------------

1
              HEAD IN LAYER   5 AT END OF TIME STEP  80 IN STRESS PERIOD    1
  ---------------------------------------------------------------------------

          1      2      3      4      5      6      7      8      9     10
 .........................................................................
   1   160.0  158.9  157.3  155.8  154.2  152.7  151.5  150.8  150.0  149.2
   2   160.0  158.6  156.7  155.1  153.4  151.9  150.7  149.9  149.1  148.4
   3   160.0  158.4  156.3  154.5  152.8  151.1  150.0  149.2  148.4  147.6
   4   160.0  158.3  156.1  154.2  152.4  150.7  149.6  148.8  148.0  147.3
   5   160.0  158.2  155.9  154.0  152.2  150.5  149.3  148.6  147.9  147.2
   6   160.0  158.2  155.9  153.9  152.0  150.3  149.1  148.5  147.9  147.4
   7   160.0  158.2  155.8  153.8  151.9  150.0  148.3  148.2  148.2  148.1
   8   160.0  158.2  155.8  153.8  151.9  149.9  148.2  148.2  148.2  148.2
   9   160.0  158.2  155.8  153.8  151.9  149.9  148.2  148.2  148.2  148.2
  10   160.0  158.2  155.8  153.8  151.9  149.9  148.2  148.2  148.2  148.2
  11   160.0  158.2  155.8  153.8  151.9  150.0  148.3  148.2  148.2  148.1
  12   160.0  158.2  155.9  153.9  152.0  150.3  149.1  148.5  147.9  147.4
  13   160.0  158.2  155.9  154.0  152.2  150.5  149.3  148.6  147.9  147.2
  14   160.0  158.3  156.1  154.2  152.4  150.7  149.6  148.8  148.0  147.3
  15   160.0  158.4  156.3  154.5  152.8  151.1  150.0  149.2  148.4  147.6
  16   160.0  158.6  156.7  155.1  153.4  151.9  150.7  149.9  149.1  148.4
  17   160.0  158.9  157.3  155.8  154.2  152.7  151.5  150.8  150.0  149.2
1
              HEAD IN LAYER   5 AT END OF TIME STEP  80 IN STRESS PERIOD    1
  ---------------------------------------------------------------------------

         11     12     13     14     15     16     17
 ....................................................
   1   148.5  147.3  145.8  144.2  142.7  141.1  140.0
   2   147.6  146.4  144.9  143.4  141.9  140.6  140.0
   3   146.9  145.7  144.2  142.7  141.4  140.3  140.0
   4   146.5  145.4  143.8  142.4  141.1  140.2  140.0
   5   146.4  145.3  143.7  142.3  141.0  140.1  140.0
   6   146.8  145.5  143.8  142.2  141.0  140.1  140.0
   7   148.1  145.8  143.8  142.2  141.0  140.1  140.0
   8   148.1  145.9  143.9  142.3  141.0  140.1  140.0
   9   148.1  146.0  143.9  142.3  141.0  140.1  140.0
  10   148.1  145.9  143.9  142.3  141.0  140.1  140.0
  11   148.1  145.8  143.8  142.2  141.0  140.1  140.0
  12   146.8  145.5  143.8  142.2  141.0  140.1  140.0
  13   146.4  145.3  143.7  142.3  141.0  140.1  140.0
  14   146.5  145.4  143.8  142.4  141.1  140.2  140.0
  15   146.9  145.7  144.2  142.7  141.4  140.3  140.0
  16   147.6  146.4  144.9  143.4  141.9  140.6  140.0
  17   148.5  147.3  145.8  144.2  142.7  141.1  140.0
1
  VOLUMETRIC BUDGET FOR ENTIRE MODEL AT END OF TIME STEP 80 IN STRESS PERIOD   1
  ------------------------------------------------------------------------------

     CUMULATIVE VOLUMES      L**3       RATES FOR THIS TIME STEP      L**3/T
     ------------------                 ------------------------

           IN:                                      IN:
           ---                                      ---
             STORAGE =       32205.5820               STORAGE =           0.0000
       CONSTANT HEAD =   974049216.0000         CONSTANT HEAD =      167171.3750
                  ET =           0.0000                    ET =           0.0000
            RECHARGE =  5399238656.0000              RECHARGE =     1740000.0000
     SPECIFIED FLOWS =           0.0000       SPECIFIED FLOWS =           0.0000
       LAKE  SEEPAGE =    31816718.0000         LAKE  SEEPAGE =       24146.6133

            TOTAL IN =  6405136896.0000              TOTAL IN =     1931318.0000

          OUT:                                     OUT:
          ----                                     ----
             STORAGE =  1011241728.0000               STORAGE =        1046.1160
       CONSTANT HEAD =    20461956.0000         CONSTANT HEAD =        9401.4199
                  ET =  5128092160.0000                    ET =     1903282.0000
            RECHARGE =           0.0000              RECHARGE =           0.0000
     SPECIFIED FLOWS =           0.0000       SPECIFIED FLOWS =           0.0000
       LAKE  SEEPAGE =   245279824.0000         LAKE  SEEPAGE =       17553.0977

           TOTAL OUT =  6405075456.0000             TOTAL OUT =     1931282.6250

            IN - OUT =       61440.0000              IN - OUT =          35.3750

 PERCENT DISCREPANCY =           0.00     PERCENT DISCREPANCY =           0.00






          TIME SUMMARY AT END OF TIME STEP  80 IN STRESS PERIOD    1
                    SECONDS     MINUTES      HOURS       DAYS        YEARS
                    -----------------------------------------------------------
   TIME STEP LENGTH 6.61332E+06 1.10222E+05  1837.0      76.543     0.20956    
 STRESS PERIOD TIME 2.68100E+08 4.46834E+06  74472.      3103.0      8.4956    
         TOTAL TIME 2.68100E+08 4.46834E+06  74472.      3103.0      8.4956    
1
 
 SOLVING FOR HEAD 
 ALL LAKES CONVERGED AFTER   2  ITERATIONS
 ALL LAKES CONVERGED AFTER   2  ITERATIONS
 ALL LAKES CONVERGED AFTER   2  ITERATIONS
 ALL LAKES CONVERGED AFTER   2  ITERATIONS
 ALL LAKES CONVERGED AFTER   2  ITERATIONS
 ALL LAKES CONVERGED AFTER   2  ITERATIONS
 ALL LAKES CONVERGED AFTER   2  ITERATIONS
 ALL LAKES CONVERGED AFTER   2  ITERATIONS
 ALL LAKES CONVERGED AFTER   2  ITERATIONS
 ALL LAKES CONVERGED AFTER   2  ITERATIONS
 ALL LAKES CONVERGED AFTER   2  ITERATIONS
 ALL LAKES CONVERGED AFTER   2  ITERATIONS
 ALL LAKES CONVERGED AFTER   2  ITERATIONS
 ALL LAKES CONVERGED AFTER   2  ITERATIONS
 ALL LAKES CONVERGED AFTER   2  ITERATIONS
 ALL LAKES CONVERGED AFTER   2  ITERATIONS
 ALL LAKES CONVERGED AFTER   2  ITERATIONS
 ALL LAKES CONVERGED AFTER   2  ITERATIONS
 ALL LAKES CONVERGED AFTER   2  ITERATIONS
 ALL LAKES CONVERGED AFTER   2  ITERATIONS
    20 ITERATIONS FOR TIME STEP  81 IN STRESS PERIOD    1

 MAXIMUM HEAD CHANGE FOR EACH ITERATION:

    HEAD CHANGE   HEAD CHANGE   HEAD CHANGE   HEAD CHANGE   HEAD CHANGE
  LAYER,ROW,COL LAYER,ROW,COL LAYER,ROW,COL LAYER,ROW,COL LAYER,ROW,COL
 ----------------------------------------------------------------------
     0.3554E-02    0.2914E-02    0.3227E-02    0.2007E-02    0.2674E-02
  (  3, 10, 10) (  4,  9, 11) (  5, 10,  8) (  3,  8, 10) (  3, 10,  8)
     0.1351E-02    0.1120E-02    0.8501E-03    0.1142E-02    0.5948E-03
  (  2,  7,  7) (  5, 10,  8) (  3,  8, 10) (  3, 10,  8) (  2,  8, 11)
     0.7215E-03    0.4133E-03    0.4487E-03    0.2721E-03    0.3583E-03
  (  3,  8,  8) (  5,  9,  9) (  5, 10,  8) (  3,  8, 10) (  3, 10,  8)
     0.1827E-03    0.1486E-03    0.1198E-03    0.1528E-03    0.8825E-04
  (  2,  7,  7) (  5, 10,  8) (  2,  9, 11) (  5, 10,  8) (  2,  7, 10)


 HEAD/DRAWDOWN PRINTOUT FLAG = 0     TOTAL BUDGET PRINTOUT FLAG = 0
 CELL-BY-CELL FLOW TERM FLAG = 1

 OUTPUT FLAGS FOR ALL LAYERS ARE THE SAME:
   HEAD    DRAWDOWN  HEAD  DRAWDOWN
 PRINTOUT  PRINTOUT  SAVE    SAVE
 ----------------------------------
     0         0       0       0


     0  LAKE CELLS ARE DRY.

 PERIOD     1     TIME STEP    81     TIME STEP LENGTH  7.8074E+01
 PERIOD TIME  3.1811E+03     TOTAL SIMULATION TIME  3.1811E+03


                 HYDROLOGIC BUDGET SUMMARIES FOR SIMULATED LAKES
     (ALL FLUID FLUXES ARE VOLUMES ADDED TO THE LAKE DURING PRESENT TIME STEP)
     ----------------------------------------------------------------------------------------
 LAKE    STAGE       PRECIP         EVAP         RUNOFF
   1  1.481943E+02  5.660356E+06  5.026006E+06  0.000000E+00

            GROUND WATER            SURFACE WATER
 LAKE    INFLOW     OUTFLOW      INFLOW     OUTFLOW
   1  1.3626E+06  1.8947E+06  0.0000E+00  0.0000E+00

         WATER    CONNECTED LAKE   UPDATED     TIME-STEP          STAGE CHANGE
 LAKE     USE         INFLUX        VOLUME    SURFACE AREA   TIME STEP  CUMULATIVE
   1   0.0000E+00   0.0000E+00   2.7996E+08    6.2500E+06   1.6141E-02  3.8194E+01
 --------------------------------------------------------------------------------



            CUMULATIVE HYDROLOGIC BUDGET SUMMARIES FOR SIMULATED LAKES
     (ALL FLUID FLUXES ARE SUMS OF VOLUMES ADDED TO THE LAKE SINCE INITIAL TIME)
     ---------------------------------------------------------------------------
 LAKE       PRECIP       EVAP       RUNOFF
   1     2.3063E+08  2.0478E+08  0.0000E+00

            GROUND WATER            SURFACE WATER
 LAKE    INFLOW     OUTFLOW      INFLOW     OUTFLOW
   1  2.4664E+08  3.3711E+07  0.0000E+00  0.0000E+00

         WATER    CONNECTED LAKE
 LAKE     USE         INFLUX
   1   0.0000E+00   0.0000E+00
 --------------------------------------------------------------------------------

 
 SOLVING FOR HEAD 
 ALL LAKES CONVERGED AFTER   2  ITERATIONS
 ALL LAKES CONVERGED AFTER   2  ITERATIONS
 ALL LAKES CONVERGED AFTER   2  ITERATIONS
 ALL LAKES CONVERGED AFTER   2  ITERATIONS
 ALL LAKES CONVERGED AFTER   2  ITERATIONS
 ALL LAKES CONVERGED AFTER   2  ITERATIONS
 ALL LAKES CONVERGED AFTER   2  ITERATIONS
 ALL LAKES CONVERGED AFTER   2  ITERATIONS
 ALL LAKES CONVERGED AFTER   2  ITERATIONS
 ALL LAKES CONVERGED AFTER   2  ITERATIONS
 ALL LAKES CONVERGED AFTER   2  ITERATIONS
 ALL LAKES CONVERGED AFTER   2  ITERATIONS
 ALL LAKES CONVERGED AFTER   2  ITERATIONS
 ALL LAKES CONVERGED AFTER   2  ITERATIONS
 ALL LAKES CONVERGED AFTER   2  ITERATIONS
 ALL LAKES CONVERGED AFTER   2  ITERATIONS
 ALL LAKES CONVERGED AFTER   2  ITERATIONS
 ALL LAKES CONVERGED AFTER   2  ITERATIONS
 ALL LAKES CONVERGED AFTER   1  ITERATIONS
 ALL LAKES CONVERGED AFTER   2  ITERATIONS
    20 ITERATIONS FOR TIME STEP  82 IN STRESS PERIOD    1

 MAXIMUM HEAD CHANGE FOR EACH ITERATION:

    HEAD CHANGE   HEAD CHANGE   HEAD CHANGE   HEAD CHANGE   HEAD CHANGE
  LAYER,ROW,COL LAYER,ROW,COL LAYER,ROW,COL LAYER,ROW,COL LAYER,ROW,COL
 ----------------------------------------------------------------------
     0.3052E-02    0.2516E-02    0.2793E-02    0.1745E-02    0.2334E-02
  (  3, 10, 10) (  5,  8, 10) (  5, 10,  8) (  3,  8, 10) (  3, 10,  8)
     0.1179E-02    0.9821E-03    0.7477E-03    0.1009E-02    0.5218E-03
  (  2,  7,  7) (  5, 10,  8) (  3,  8, 10) (  3, 10,  8) (  3,  8, 10)
     0.6389E-03    0.3692E-03    0.3992E-03    0.2470E-03    0.3191E-03
  (  2,  7,  7) (  5,  9,  9) (  5, 10,  8) (  2,  9, 11) (  3, 10,  8)
     0.1574E-03    0.1366E-03    0.1024E-03    0.1336E-03    0.7025E-04
  (  3,  9, 10) (  5, 10,  8) (  3,  8, 10) (  2, 11,  7) (  3,  8, 10)


 HEAD/DRAWDOWN PRINTOUT FLAG = 0     TOTAL BUDGET PRINTOUT FLAG = 0
 CELL-BY-CELL FLOW TERM FLAG = 1

 OUTPUT FLAGS FOR ALL LAYERS ARE THE SAME:
   HEAD    DRAWDOWN  HEAD  DRAWDOWN
 PRINTOUT  PRINTOUT  SAVE    SAVE
 ----------------------------------
     0         0       0       0


     0  LAKE CELLS ARE DRY.

 PERIOD     1     TIME STEP    82     TIME STEP LENGTH  7.9635E+01
 PERIOD TIME  3.2607E+03     TOTAL SIMULATION TIME  3.2607E+03


                 HYDROLOGIC BUDGET SUMMARIES FOR SIMULATED LAKES
     (ALL FLUID FLUXES ARE VOLUMES ADDED TO THE LAKE DURING PRESENT TIME STEP)
     ----------------------------------------------------------------------------------------
 LAKE    STAGE       PRECIP         EVAP         RUNOFF
   1  1.482084E+02  5.773563E+06  5.126526E+06  0.000000E+00

            GROUND WATER            SURFACE WATER
 LAKE    INFLOW     OUTFLOW      INFLOW     OUTFLOW
   1  1.3829E+06  1.9410E+06  0.0000E+00  0.0000E+00

         WATER    CONNECTED LAKE   UPDATED     TIME-STEP          STAGE CHANGE
 LAKE     USE         INFLUX        VOLUME    SURFACE AREA   TIME STEP  CUMULATIVE
   1   0.0000E+00   0.0000E+00   2.8005E+08    6.2500E+06   1.4029E-02  3.8208E+01
 --------------------------------------------------------------------------------



            CUMULATIVE HYDROLOGIC BUDGET SUMMARIES FOR SIMULATED LAKES
     (ALL FLUID FLUXES ARE SUMS OF VOLUMES ADDED TO THE LAKE SINCE INITIAL TIME)
     ---------------------------------------------------------------------------
 LAKE       PRECIP       EVAP       RUNOFF
   1     2.3640E+08  2.0991E+08  0.0000E+00

            GROUND WATER            SURFACE WATER
 LAKE    INFLOW     OUTFLOW      INFLOW     OUTFLOW
   1  2.4803E+08  3.5652E+07  0.0000E+00  0.0000E+00

         WATER    CONNECTED LAKE
 LAKE     USE         INFLUX
   1   0.0000E+00   0.0000E+00
 --------------------------------------------------------------------------------

 
 SOLVING FOR HEAD 
 ALL LAKES CONVERGED AFTER   2  ITERATIONS
 ALL LAKES CONVERGED AFTER   2  ITERATIONS
 ALL LAKES CONVERGED AFTER   2  ITERATIONS
 ALL LAKES CONVERGED AFTER   2  ITERATIONS
 ALL LAKES CONVERGED AFTER   2  ITERATIONS
 ALL LAKES CONVERGED AFTER   2  ITERATIONS
 ALL LAKES CONVERGED AFTER   2  ITERATIONS
 ALL LAKES CONVERGED AFTER   2  ITERATIONS
 ALL LAKES CONVERGED AFTER   2  ITERATIONS
 ALL LAKES CONVERGED AFTER   2  ITERATIONS
 ALL LAKES CONVERGED AFTER   2  ITERATIONS
 ALL LAKES CONVERGED AFTER   2  ITERATIONS
 ALL LAKES CONVERGED AFTER   2  ITERATIONS
 ALL LAKES CONVERGED AFTER   2  ITERATIONS
 ALL LAKES CONVERGED AFTER   2  ITERATIONS
 ALL LAKES CONVERGED AFTER   2  ITERATIONS
 ALL LAKES CONVERGED AFTER   2  ITERATIONS
 ALL LAKES CONVERGED AFTER   2  ITERATIONS
    18 ITERATIONS FOR TIME STEP  83 IN STRESS PERIOD    1

 MAXIMUM HEAD CHANGE FOR EACH ITERATION:

    HEAD CHANGE   HEAD CHANGE   HEAD CHANGE   HEAD CHANGE   HEAD CHANGE
  LAYER,ROW,COL LAYER,ROW,COL LAYER,ROW,COL LAYER,ROW,COL LAYER,ROW,COL
 ----------------------------------------------------------------------
     0.2614E-02    0.2157E-02    0.2403E-02    0.1505E-02    0.2006E-02
  (  3, 10, 10) (  5,  8, 10) (  5, 10,  8) (  2,  7, 10) (  3, 10,  8)
     0.1018E-02    0.8556E-03    0.6553E-03    0.8848E-03    0.4658E-03
  (  2,  7,  7) (  5, 10,  8) (  3,  8, 10) (  3, 10,  8) (  2,  8, 11)
     0.5634E-03    0.3258E-03    0.3609E-03    0.2176E-03    0.2793E-03
  (  2,  7,  7) (  5,  9,  9) (  5, 10,  8) (  2,  8, 11) (  3, 10,  8)
     0.1389E-03    0.1243E-03    0.9866E-04
  (  3,  9, 10) (  5, 10,  8) (  2,  7, 10)


 HEAD/DRAWDOWN PRINTOUT FLAG = 0     TOTAL BUDGET PRINTOUT FLAG = 0
 CELL-BY-CELL FLOW TERM FLAG = 1

 OUTPUT FLAGS FOR ALL LAYERS ARE THE SAME:
   HEAD    DRAWDOWN  HEAD  DRAWDOWN
 PRINTOUT  PRINTOUT  SAVE    SAVE
 ----------------------------------
     0         0       0       0


     0  LAKE CELLS ARE DRY.

 PERIOD     1     TIME STEP    83     TIME STEP LENGTH  8.1228E+01
 PERIOD TIME  3.3419E+03     TOTAL SIMULATION TIME  3.3419E+03


                 HYDROLOGIC BUDGET SUMMARIES FOR SIMULATED LAKES
     (ALL FLUID FLUXES ARE VOLUMES ADDED TO THE LAKE DURING PRESENT TIME STEP)
     ----------------------------------------------------------------------------------------
 LAKE    STAGE       PRECIP         EVAP         RUNOFF
   1  1.482202E+02  5.889034E+06  5.229056E+06  0.000000E+00

            GROUND WATER            SURFACE WATER
 LAKE    INFLOW     OUTFLOW      INFLOW     OUTFLOW
   1  1.4042E+06  1.9873E+06  0.0000E+00  0.0000E+00

         WATER    CONNECTED LAKE   UPDATED     TIME-STEP          STAGE CHANGE
 LAKE     USE         INFLUX        VOLUME    SURFACE AREA   TIME STEP  CUMULATIVE
   1   0.0000E+00   0.0000E+00   2.8013E+08    6.2500E+06   1.1802E-02  3.8220E+01
 --------------------------------------------------------------------------------



            CUMULATIVE HYDROLOGIC BUDGET SUMMARIES FOR SIMULATED LAKES
     (ALL FLUID FLUXES ARE SUMS OF VOLUMES ADDED TO THE LAKE SINCE INITIAL TIME)
     ---------------------------------------------------------------------------
 LAKE       PRECIP       EVAP       RUNOFF
   1     2.4229E+08  2.1514E+08  0.0000E+00

            GROUND WATER            SURFACE WATER
 LAKE    INFLOW     OUTFLOW      INFLOW     OUTFLOW
   1  2.4943E+08  3.7640E+07  0.0000E+00  0.0000E+00

         WATER    CONNECTED LAKE
 LAKE     USE         INFLUX
   1   0.0000E+00   0.0000E+00
 --------------------------------------------------------------------------------

 
 SOLVING FOR HEAD 
 ALL LAKES CONVERGED AFTER   2  ITERATIONS
 ALL LAKES CONVERGED AFTER   2  ITERATIONS
 ALL LAKES CONVERGED AFTER   2  ITERATIONS
 ALL LAKES CONVERGED AFTER   2  ITERATIONS
 ALL LAKES CONVERGED AFTER   2  ITERATIONS
 ALL LAKES CONVERGED AFTER   2  ITERATIONS
 ALL LAKES CONVERGED AFTER   2  ITERATIONS
 ALL LAKES CONVERGED AFTER   2  ITERATIONS
 ALL LAKES CONVERGED AFTER   2  ITERATIONS
 ALL LAKES CONVERGED AFTER   2  ITERATIONS
 ALL LAKES CONVERGED AFTER   2  ITERATIONS
 ALL LAKES CONVERGED AFTER   2  ITERATIONS
 ALL LAKES CONVERGED AFTER   2  ITERATIONS
 ALL LAKES CONVERGED AFTER   2  ITERATIONS
 ALL LAKES CONVERGED AFTER   2  ITERATIONS
 ALL LAKES CONVERGED AFTER   2  ITERATIONS
 ALL LAKES CONVERGED AFTER   2  ITERATIONS
 ALL LAKES CONVERGED AFTER   2  ITERATIONS
    18 ITERATIONS FOR TIME STEP  84 IN STRESS PERIOD    1

 MAXIMUM HEAD CHANGE FOR EACH ITERATION:

    HEAD CHANGE   HEAD CHANGE   HEAD CHANGE   HEAD CHANGE   HEAD CHANGE
  LAYER,ROW,COL LAYER,ROW,COL LAYER,ROW,COL LAYER,ROW,COL LAYER,ROW,COL
 ----------------------------------------------------------------------
     0.2218E-02    0.1828E-02    0.2033E-02    0.1286E-02    0.1716E-02
  (  3, 10,  8) (  4,  9, 11) (  5, 10,  8) (  2,  7, 10) (  3, 10,  8)
     0.8733E-03    0.7314E-03    0.5628E-03    0.7614E-03    0.4014E-03
  (  2,  7,  7) (  5, 10,  8) (  3,  8, 10) (  3, 10,  8) (  3,  8, 10)
     0.4964E-03    0.2831E-03    0.3123E-03    0.1913E-03    0.2490E-03
  (  3,  8,  8) (  5,  9,  9) (  5, 10,  8) (  3,  8, 10) (  3, 10,  8)
     0.1347E-03    0.1080E-03    0.8174E-04
  (  2,  7,  7) (  5,  8,  7) (  3,  8, 10)


 HEAD/DRAWDOWN PRINTOUT FLAG = 0     TOTAL BUDGET PRINTOUT FLAG = 0
 CELL-BY-CELL FLOW TERM FLAG = 1

 OUTPUT FLAGS FOR ALL LAYERS ARE THE SAME:
   HEAD    DRAWDOWN  HEAD  DRAWDOWN
 PRINTOUT  PRINTOUT  SAVE    SAVE
 ----------------------------------
     0         0       0       0


     0  LAKE CELLS ARE DRY.

 PERIOD     1     TIME STEP    84     TIME STEP LENGTH  8.2853E+01
 PERIOD TIME  3.4248E+03     TOTAL SIMULATION TIME  3.4248E+03


                 HYDROLOGIC BUDGET SUMMARIES FOR SIMULATED LAKES
     (ALL FLUID FLUXES ARE VOLUMES ADDED TO THE LAKE DURING PRESENT TIME STEP)
     ----------------------------------------------------------------------------------------
 LAKE    STAGE       PRECIP         EVAP         RUNOFF
   1  1.482306E+02  6.006814E+06  5.333637E+06  0.000000E+00

            GROUND WATER            SURFACE WATER
 LAKE    INFLOW     OUTFLOW      INFLOW     OUTFLOW
   1  1.4271E+06  2.0333E+06  0.0000E+00  0.0000E+00

         WATER    CONNECTED LAKE   UPDATED     TIME-STEP          STAGE CHANGE
 LAKE     USE         INFLUX        VOLUME    SURFACE AREA   TIME STEP  CUMULATIVE
   1   0.0000E+00   0.0000E+00   2.8019E+08    6.2500E+06   1.0394E-02  3.8231E+01
 --------------------------------------------------------------------------------



            CUMULATIVE HYDROLOGIC BUDGET SUMMARIES FOR SIMULATED LAKES
     (ALL FLUID FLUXES ARE SUMS OF VOLUMES ADDED TO THE LAKE SINCE INITIAL TIME)
     ---------------------------------------------------------------------------
 LAKE       PRECIP       EVAP       RUNOFF
   1     2.4830E+08  2.2047E+08  0.0000E+00

            GROUND WATER            SURFACE WATER
 LAKE    INFLOW     OUTFLOW      INFLOW     OUTFLOW
   1  2.5086E+08  3.9673E+07  0.0000E+00  0.0000E+00

         WATER    CONNECTED LAKE
 LAKE     USE         INFLUX
   1   0.0000E+00   0.0000E+00
 --------------------------------------------------------------------------------

 
 SOLVING FOR HEAD 
 ALL LAKES CONVERGED AFTER   2  ITERATIONS
 ALL LAKES CONVERGED AFTER   2  ITERATIONS
 ALL LAKES CONVERGED AFTER   2  ITERATIONS
 ALL LAKES CONVERGED AFTER   2  ITERATIONS
 ALL LAKES CONVERGED AFTER   2  ITERATIONS
 ALL LAKES CONVERGED AFTER   2  ITERATIONS
 ALL LAKES CONVERGED AFTER   2  ITERATIONS
 ALL LAKES CONVERGED AFTER   2  ITERATIONS
 ALL LAKES CONVERGED AFTER   2  ITERATIONS
 ALL LAKES CONVERGED AFTER   2  ITERATIONS
 ALL LAKES CONVERGED AFTER   2  ITERATIONS
 ALL LAKES CONVERGED AFTER   2  ITERATIONS
 ALL LAKES CONVERGED AFTER   2  ITERATIONS
 ALL LAKES CONVERGED AFTER   2  ITERATIONS
 ALL LAKES CONVERGED AFTER   2  ITERATIONS
 ALL LAKES CONVERGED AFTER   2  ITERATIONS
 ALL LAKES CONVERGED AFTER   2  ITERATIONS
 ALL LAKES CONVERGED AFTER   2  ITERATIONS
    18 ITERATIONS FOR TIME STEP  85 IN STRESS PERIOD    1

 MAXIMUM HEAD CHANGE FOR EACH ITERATION:

    HEAD CHANGE   HEAD CHANGE   HEAD CHANGE   HEAD CHANGE   HEAD CHANGE
  LAYER,ROW,COL LAYER,ROW,COL LAYER,ROW,COL LAYER,ROW,COL LAYER,ROW,COL
 ----------------------------------------------------------------------
     0.1920E-02    0.1581E-02    0.1772E-02    0.1123E-02    0.1497E-02
  (  3, 10,  8) (  5,  8, 10) (  5, 10,  8) (  2,  9, 11) (  3, 10,  8)
     0.7669E-03    0.6493E-03    0.5012E-03    0.6749E-03    0.3567E-03
  (  2,  7,  7) (  5, 10,  8) (  3,  8, 10) (  3, 10,  8) (  2,  8, 11)
     0.4327E-03    0.2498E-03    0.2776E-03    0.1779E-03    0.2298E-03
  (  2,  7,  7) (  5,  9,  9) (  5, 10,  8) (  2,  9, 11) (  5, 10,  8)
     0.1170E-03    0.1017E-03    0.7987E-04
  (  2,  7, 11) (  5, 10,  8) (  2,  9, 11)


 HEAD/DRAWDOWN PRINTOUT FLAG = 0     TOTAL BUDGET PRINTOUT FLAG = 0
 CELL-BY-CELL FLOW TERM FLAG = 1

 OUTPUT FLAGS FOR ALL LAYERS ARE THE SAME:
   HEAD    DRAWDOWN  HEAD  DRAWDOWN
 PRINTOUT  PRINTOUT  SAVE    SAVE
 ----------------------------------
     0         0       0       0


     0  LAKE CELLS ARE DRY.

 PERIOD     1     TIME STEP    85     TIME STEP LENGTH  8.4510E+01
 PERIOD TIME  3.5093E+03     TOTAL SIMULATION TIME  3.5093E+03


                 HYDROLOGIC BUDGET SUMMARIES FOR SIMULATED LAKES
     (ALL FLUID FLUXES ARE VOLUMES ADDED TO THE LAKE DURING PRESENT TIME STEP)
     ----------------------------------------------------------------------------------------
 LAKE    STAGE       PRECIP         EVAP         RUNOFF
   1  1.482395E+02  6.126950E+06  5.440310E+06  0.000000E+00

            GROUND WATER            SURFACE WATER
 LAKE    INFLOW     OUTFLOW      INFLOW     OUTFLOW
   1  1.4509E+06  2.0797E+06  0.0000E+00  0.0000E+00

         WATER    CONNECTED LAKE   UPDATED     TIME-STEP          STAGE CHANGE
 LAKE     USE         INFLUX        VOLUME    SURFACE AREA   TIME STEP  CUMULATIVE
   1   0.0000E+00   0.0000E+00   2.8025E+08    6.2500E+06   8.9592E-03  3.8240E+01
 --------------------------------------------------------------------------------



            CUMULATIVE HYDROLOGIC BUDGET SUMMARIES FOR SIMULATED LAKES
     (ALL FLUID FLUXES ARE SUMS OF VOLUMES ADDED TO THE LAKE SINCE INITIAL TIME)
     ---------------------------------------------------------------------------
 LAKE       PRECIP       EVAP       RUNOFF
   1     2.5442E+08  2.2591E+08  0.0000E+00

            GROUND WATER            SURFACE WATER
 LAKE    INFLOW     OUTFLOW      INFLOW     OUTFLOW
   1  2.5231E+08  4.1753E+07  0.0000E+00  0.0000E+00

         WATER    CONNECTED LAKE
 LAKE     USE         INFLUX
   1   0.0000E+00   0.0000E+00
 --------------------------------------------------------------------------------

 
 SOLVING FOR HEAD 
 ALL LAKES CONVERGED AFTER   2  ITERATIONS
 ALL LAKES CONVERGED AFTER   2  ITERATIONS
 ALL LAKES CONVERGED AFTER   2  ITERATIONS
 ALL LAKES CONVERGED AFTER   2  ITERATIONS
 ALL LAKES CONVERGED AFTER   2  ITERATIONS
 ALL LAKES CONVERGED AFTER   2  ITERATIONS
 ALL LAKES CONVERGED AFTER   2  ITERATIONS
 ALL LAKES CONVERGED AFTER   2  ITERATIONS
 ALL LAKES CONVERGED AFTER   2  ITERATIONS
 ALL LAKES CONVERGED AFTER   2  ITERATIONS
 ALL LAKES CONVERGED AFTER   2  ITERATIONS
 ALL LAKES CONVERGED AFTER   2  ITERATIONS
 ALL LAKES CONVERGED AFTER   2  ITERATIONS
 ALL LAKES CONVERGED AFTER   2  ITERATIONS
 ALL LAKES CONVERGED AFTER   2  ITERATIONS
 ALL LAKES CONVERGED AFTER   2  ITERATIONS
 ALL LAKES CONVERGED AFTER   2  ITERATIONS
    17 ITERATIONS FOR TIME STEP  86 IN STRESS PERIOD    1

 MAXIMUM HEAD CHANGE FOR EACH ITERATION:

    HEAD CHANGE   HEAD CHANGE   HEAD CHANGE   HEAD CHANGE   HEAD CHANGE
  LAYER,ROW,COL LAYER,ROW,COL LAYER,ROW,COL LAYER,ROW,COL LAYER,ROW,COL
 ----------------------------------------------------------------------
     0.1633E-02    0.1352E-02    0.1516E-02    0.9583E-03    0.1278E-02
  (  3, 10,  8) (  5,  8, 10) (  5, 10,  8) (  3,  8, 10) (  3, 10,  8)
     0.6612E-03    0.5587E-03    0.4298E-03    0.5907E-03    0.3174E-03
  (  2,  7,  7) (  5, 10,  8) (  3,  8, 10) (  3, 10,  8) (  2,  8, 11)
     0.3844E-03    0.2179E-03    0.2445E-03    0.1512E-03    0.1992E-03
  (  2,  7,  7) (  5,  9,  9) (  5, 10,  8) (  3,  8, 10) (  3, 10,  8)
     0.1019E-03    0.9070E-04
  (  3,  9, 10) (  5, 10,  8)


 HEAD/DRAWDOWN PRINTOUT FLAG = 0     TOTAL BUDGET PRINTOUT FLAG = 0
 CELL-BY-CELL FLOW TERM FLAG = 1

 OUTPUT FLAGS FOR ALL LAYERS ARE THE SAME:
   HEAD    DRAWDOWN  HEAD  DRAWDOWN
 PRINTOUT  PRINTOUT  SAVE    SAVE
 ----------------------------------
     0         0       0       0


     0  LAKE CELLS ARE DRY.

 PERIOD     1     TIME STEP    86     TIME STEP LENGTH  8.6200E+01
 PERIOD TIME  3.5955E+03     TOTAL SIMULATION TIME  3.5955E+03


                 HYDROLOGIC BUDGET SUMMARIES FOR SIMULATED LAKES
     (ALL FLUID FLUXES ARE VOLUMES ADDED TO THE LAKE DURING PRESENT TIME STEP)
     ----------------------------------------------------------------------------------------
 LAKE    STAGE       PRECIP         EVAP         RUNOFF
   1  1.482470E+02  6.249490E+06  5.549116E+06  0.000000E+00

            GROUND WATER            SURFACE WATER
 LAKE    INFLOW     OUTFLOW      INFLOW     OUTFLOW
   1  1.4768E+06  2.1257E+06  0.0000E+00  0.0000E+00

         WATER    CONNECTED LAKE   UPDATED     TIME-STEP          STAGE CHANGE
 LAKE     USE         INFLUX        VOLUME    SURFACE AREA   TIME STEP  CUMULATIVE
   1   0.0000E+00   0.0000E+00   2.8029E+08    6.2500E+06   7.5316E-03  3.8247E+01
 --------------------------------------------------------------------------------



            CUMULATIVE HYDROLOGIC BUDGET SUMMARIES FOR SIMULATED LAKES
     (ALL FLUID FLUXES ARE SUMS OF VOLUMES ADDED TO THE LAKE SINCE INITIAL TIME)
     ---------------------------------------------------------------------------
 LAKE       PRECIP       EVAP       RUNOFF
   1     2.6067E+08  2.3146E+08  0.0000E+00

            GROUND WATER            SURFACE WATER
 LAKE    INFLOW     OUTFLOW      INFLOW     OUTFLOW
   1  2.5378E+08  4.3878E+07  0.0000E+00  0.0000E+00

         WATER    CONNECTED LAKE
 LAKE     USE         INFLUX
   1   0.0000E+00   0.0000E+00
 --------------------------------------------------------------------------------

 
 SOLVING FOR HEAD 
 ALL LAKES CONVERGED AFTER   2  ITERATIONS
 ALL LAKES CONVERGED AFTER   2  ITERATIONS
 ALL LAKES CONVERGED AFTER   2  ITERATIONS
 ALL LAKES CONVERGED AFTER   2  ITERATIONS
 ALL LAKES CONVERGED AFTER   2  ITERATIONS
 ALL LAKES CONVERGED AFTER   2  ITERATIONS
 ALL LAKES CONVERGED AFTER   2  ITERATIONS
 ALL LAKES CONVERGED AFTER   2  ITERATIONS
 ALL LAKES CONVERGED AFTER   2  ITERATIONS
 ALL LAKES CONVERGED AFTER   2  ITERATIONS
 ALL LAKES CONVERGED AFTER   2  ITERATIONS
 ALL LAKES CONVERGED AFTER   2  ITERATIONS
 ALL LAKES CONVERGED AFTER   2  ITERATIONS
 ALL LAKES CONVERGED AFTER   2  ITERATIONS
 ALL LAKES CONVERGED AFTER   1  ITERATIONS
 ALL LAKES CONVERGED AFTER   2  ITERATIONS
    16 ITERATIONS FOR TIME STEP  87 IN STRESS PERIOD    1

 MAXIMUM HEAD CHANGE FOR EACH ITERATION:

    HEAD CHANGE   HEAD CHANGE   HEAD CHANGE   HEAD CHANGE   HEAD CHANGE
  LAYER,ROW,COL LAYER,ROW,COL LAYER,ROW,COL LAYER,ROW,COL LAYER,ROW,COL
 ----------------------------------------------------------------------
     0.1324E-02    0.1127E-02    0.1261E-02    0.8067E-03    0.1087E-02
  (  3,  9,  9) (  5,  8, 10) (  5, 10,  8) (  3,  8, 10) (  3, 10,  8)
     0.5644E-03    0.4772E-03    0.3683E-03    0.5042E-03    0.2775E-03
  (  2,  7,  7) (  5, 10,  8) (  3,  8, 10) (  3, 10,  8) (  2,  8, 11)
     0.3294E-03    0.1943E-03    0.2136E-03    0.1308E-03    0.1693E-03
  (  2,  7,  7) (  5,  9,  9) (  5, 10,  8) (  3,  8, 10) (  3, 10,  8)
     0.8736E-04
  (  2,  7,  7)


 HEAD/DRAWDOWN PRINTOUT FLAG = 0     TOTAL BUDGET PRINTOUT FLAG = 0
 CELL-BY-CELL FLOW TERM FLAG = 1

 OUTPUT FLAGS FOR ALL LAYERS ARE THE SAME:
   HEAD    DRAWDOWN  HEAD  DRAWDOWN
 PRINTOUT  PRINTOUT  SAVE    SAVE
 ----------------------------------
     0         0       0       0


     0  LAKE CELLS ARE DRY.

 PERIOD     1     TIME STEP    87     TIME STEP LENGTH  8.7924E+01
 PERIOD TIME  3.6834E+03     TOTAL SIMULATION TIME  3.6834E+03


                 HYDROLOGIC BUDGET SUMMARIES FOR SIMULATED LAKES
     (ALL FLUID FLUXES ARE VOLUMES ADDED TO THE LAKE DURING PRESENT TIME STEP)
     ----------------------------------------------------------------------------------------
 LAKE    STAGE       PRECIP         EVAP         RUNOFF
   1  1.482534E+02  6.374480E+06  5.660098E+06  0.000000E+00

            GROUND WATER            SURFACE WATER
 LAKE    INFLOW     OUTFLOW      INFLOW     OUTFLOW
   1  1.5023E+06  2.1731E+06  0.0000E+00  0.0000E+00

         WATER    CONNECTED LAKE   UPDATED     TIME-STEP          STAGE CHANGE
 LAKE     USE         INFLUX        VOLUME    SURFACE AREA   TIME STEP  CUMULATIVE
   1   0.0000E+00   0.0000E+00   2.8033E+08    6.2500E+06   6.4018E-03  3.8253E+01
 --------------------------------------------------------------------------------



            CUMULATIVE HYDROLOGIC BUDGET SUMMARIES FOR SIMULATED LAKES
     (ALL FLUID FLUXES ARE SUMS OF VOLUMES ADDED TO THE LAKE SINCE INITIAL TIME)
     ---------------------------------------------------------------------------
 LAKE       PRECIP       EVAP       RUNOFF
   1     2.6705E+08  2.3712E+08  0.0000E+00

            GROUND WATER            SURFACE WATER
 LAKE    INFLOW     OUTFLOW      INFLOW     OUTFLOW
   1  2.5529E+08  4.6052E+07  0.0000E+00  0.0000E+00

         WATER    CONNECTED LAKE
 LAKE     USE         INFLUX
   1   0.0000E+00   0.0000E+00
 --------------------------------------------------------------------------------

 
 SOLVING FOR HEAD 
 ALL LAKES CONVERGED AFTER   2  ITERATIONS
 ALL LAKES CONVERGED AFTER   2  ITERATIONS
 ALL LAKES CONVERGED AFTER   2  ITERATIONS
 ALL LAKES CONVERGED AFTER   2  ITERATIONS
 ALL LAKES CONVERGED AFTER   2  ITERATIONS
 ALL LAKES CONVERGED AFTER   2  ITERATIONS
 ALL LAKES CONVERGED AFTER   2  ITERATIONS
 ALL LAKES CONVERGED AFTER   2  ITERATIONS
 ALL LAKES CONVERGED AFTER   2  ITERATIONS
 ALL LAKES CONVERGED AFTER   2  ITERATIONS
 ALL LAKES CONVERGED AFTER   2  ITERATIONS
 ALL LAKES CONVERGED AFTER   2  ITERATIONS
 ALL LAKES CONVERGED AFTER   2  ITERATIONS
 ALL LAKES CONVERGED AFTER   2  ITERATIONS
 ALL LAKES CONVERGED AFTER   1  ITERATIONS
 ALL LAKES CONVERGED AFTER   2  ITERATIONS
    16 ITERATIONS FOR TIME STEP  88 IN STRESS PERIOD    1

 MAXIMUM HEAD CHANGE FOR EACH ITERATION:

    HEAD CHANGE   HEAD CHANGE   HEAD CHANGE   HEAD CHANGE   HEAD CHANGE
  LAYER,ROW,COL LAYER,ROW,COL LAYER,ROW,COL LAYER,ROW,COL LAYER,ROW,COL
 ----------------------------------------------------------------------
     0.1137E-02    0.9712E-03    0.1087E-02    0.6958E-03    0.9380E-03
  (  3, 10,  8) (  5,  8,  9) (  5, 10,  8) (  3,  8, 10) (  3, 10,  8)
     0.4886E-03    0.4104E-03    0.3270E-03    0.4370E-03    0.2405E-03
  (  2,  7,  7) (  5, 10,  8) (  3,  8, 10) (  3, 10,  8) (  3,  8, 10)
     0.2904E-03    0.1738E-03    0.1911E-03    0.1186E-03    0.1508E-03
  (  3,  8,  8) (  4, 10, 11) (  5, 10,  8) (  2,  8, 11) (  2, 11,  7)
     0.8001E-04
  (  2,  9,  7)


 HEAD/DRAWDOWN PRINTOUT FLAG = 0     TOTAL BUDGET PRINTOUT FLAG = 0
 CELL-BY-CELL FLOW TERM FLAG = 1

 OUTPUT FLAGS FOR ALL LAYERS ARE THE SAME:
   HEAD    DRAWDOWN  HEAD  DRAWDOWN
 PRINTOUT  PRINTOUT  SAVE    SAVE
 ----------------------------------
     0         0       0       0


     0  LAKE CELLS ARE DRY.

 PERIOD     1     TIME STEP    88     TIME STEP LENGTH  8.9682E+01
 PERIOD TIME  3.7731E+03     TOTAL SIMULATION TIME  3.7731E+03


                 HYDROLOGIC BUDGET SUMMARIES FOR SIMULATED LAKES
     (ALL FLUID FLUXES ARE VOLUMES ADDED TO THE LAKE DURING PRESENT TIME STEP)
     ----------------------------------------------------------------------------------------
 LAKE    STAGE       PRECIP         EVAP         RUNOFF
   1  1.482589E+02  6.501969E+06  5.773300E+06  0.000000E+00

            GROUND WATER            SURFACE WATER
 LAKE    INFLOW     OUTFLOW      INFLOW     OUTFLOW
   1  1.5294E+06  2.2202E+06  0.0000E+00  0.0000E+00

         WATER    CONNECTED LAKE   UPDATED     TIME-STEP          STAGE CHANGE
 LAKE     USE         INFLUX        VOLUME    SURFACE AREA   TIME STEP  CUMULATIVE
   1   0.0000E+00   0.0000E+00   2.8037E+08    6.2500E+06   5.4481E-03  3.8259E+01
 --------------------------------------------------------------------------------



            CUMULATIVE HYDROLOGIC BUDGET SUMMARIES FOR SIMULATED LAKES
     (ALL FLUID FLUXES ARE SUMS OF VOLUMES ADDED TO THE LAKE SINCE INITIAL TIME)
     ---------------------------------------------------------------------------
 LAKE       PRECIP       EVAP       RUNOFF
   1     2.7355E+08  2.4289E+08  0.0000E+00

            GROUND WATER            SURFACE WATER
 LAKE    INFLOW     OUTFLOW      INFLOW     OUTFLOW
   1  2.5682E+08  4.8272E+07  0.0000E+00  0.0000E+00

         WATER    CONNECTED LAKE
 LAKE     USE         INFLUX
   1   0.0000E+00   0.0000E+00
 --------------------------------------------------------------------------------

 
 SOLVING FOR HEAD 
 ALL LAKES CONVERGED AFTER   2  ITERATIONS
 ALL LAKES CONVERGED AFTER   2  ITERATIONS
 ALL LAKES CONVERGED AFTER   2  ITERATIONS
 ALL LAKES CONVERGED AFTER   2  ITERATIONS
 ALL LAKES CONVERGED AFTER   2  ITERATIONS
 ALL LAKES CONVERGED AFTER   2  ITERATIONS
 ALL LAKES CONVERGED AFTER   2  ITERATIONS
 ALL LAKES CONVERGED AFTER   2  ITERATIONS
 ALL LAKES CONVERGED AFTER   2  ITERATIONS
 ALL LAKES CONVERGED AFTER   2  ITERATIONS
 ALL LAKES CONVERGED AFTER   2  ITERATIONS
 ALL LAKES CONVERGED AFTER   2  ITERATIONS
 ALL LAKES CONVERGED AFTER   2  ITERATIONS
 ALL LAKES CONVERGED AFTER   2  ITERATIONS
 ALL LAKES CONVERGED AFTER   1  ITERATIONS
 ALL LAKES CONVERGED AFTER   2  ITERATIONS
    16 ITERATIONS FOR TIME STEP  89 IN STRESS PERIOD    1

 MAXIMUM HEAD CHANGE FOR EACH ITERATION:

    HEAD CHANGE   HEAD CHANGE   HEAD CHANGE   HEAD CHANGE   HEAD CHANGE
  LAYER,ROW,COL LAYER,ROW,COL LAYER,ROW,COL LAYER,ROW,COL LAYER,ROW,COL
 ----------------------------------------------------------------------
     0.9578E-03    0.8113E-03    0.9159E-03    0.5880E-03    0.7878E-03
  (  3, 10,  8) (  4,  9, 11) (  5, 10,  8) (  2,  7, 11) (  3, 10,  8)
     0.4128E-03    0.3526E-03    0.2786E-03    0.3711E-03    0.2007E-03
  (  2,  7,  7) (  5, 10,  8) (  2,  7,  9) (  4, 10,  8) (  3,  8, 10)
     0.2453E-03    0.1507E-03    0.1645E-03    0.1006E-03    0.1303E-03
  (  2,  7,  7) (  5,  9,  9) (  5, 10,  8) (  3,  8, 10) (  2, 11, 11)
     0.6791E-04
  (  2,  7,  7)


 HEAD/DRAWDOWN PRINTOUT FLAG = 0     TOTAL BUDGET PRINTOUT FLAG = 0
 CELL-BY-CELL FLOW TERM FLAG = 1

 OUTPUT FLAGS FOR ALL LAYERS ARE THE SAME:
   HEAD    DRAWDOWN  HEAD  DRAWDOWN
 PRINTOUT  PRINTOUT  SAVE    SAVE
 ----------------------------------
     0         0       0       0


     0  LAKE CELLS ARE DRY.

 PERIOD     1     TIME STEP    89     TIME STEP LENGTH  9.1476E+01
 PERIOD TIME  3.8646E+03     TOTAL SIMULATION TIME  3.8646E+03


                 HYDROLOGIC BUDGET SUMMARIES FOR SIMULATED LAKES
     (ALL FLUID FLUXES ARE VOLUMES ADDED TO THE LAKE DURING PRESENT TIME STEP)
     ----------------------------------------------------------------------------------------
 LAKE    STAGE       PRECIP         EVAP         RUNOFF
   1  1.482636E+02  6.632008E+06  5.888766E+06  0.000000E+00

            GROUND WATER            SURFACE WATER
 LAKE    INFLOW     OUTFLOW      INFLOW     OUTFLOW
   1  1.5570E+06  2.2680E+06  0.0000E+00  0.0000E+00

         WATER    CONNECTED LAKE   UPDATED     TIME-STEP          STAGE CHANGE
 LAKE     USE         INFLUX        VOLUME    SURFACE AREA   TIME STEP  CUMULATIVE
   1   0.0000E+00   0.0000E+00   2.8040E+08    6.2500E+06   4.7252E-03  3.8264E+01
 --------------------------------------------------------------------------------



            CUMULATIVE HYDROLOGIC BUDGET SUMMARIES FOR SIMULATED LAKES
     (ALL FLUID FLUXES ARE SUMS OF VOLUMES ADDED TO THE LAKE SINCE INITIAL TIME)
     ---------------------------------------------------------------------------
 LAKE       PRECIP       EVAP       RUNOFF
   1     2.8018E+08  2.4878E+08  0.0000E+00

            GROUND WATER            SURFACE WATER
 LAKE    INFLOW     OUTFLOW      INFLOW     OUTFLOW
   1  2.5837E+08  5.0540E+07  0.0000E+00  0.0000E+00

         WATER    CONNECTED LAKE
 LAKE     USE         INFLUX
   1   0.0000E+00   0.0000E+00
 --------------------------------------------------------------------------------

 
 SOLVING FOR HEAD 
 ALL LAKES CONVERGED AFTER   2  ITERATIONS
 ALL LAKES CONVERGED AFTER   2  ITERATIONS
 ALL LAKES CONVERGED AFTER   2  ITERATIONS
 ALL LAKES CONVERGED AFTER   2  ITERATIONS
 ALL LAKES CONVERGED AFTER   2  ITERATIONS
 ALL LAKES CONVERGED AFTER   2  ITERATIONS
 ALL LAKES CONVERGED AFTER   2  ITERATIONS
 ALL LAKES CONVERGED AFTER   2  ITERATIONS
 ALL LAKES CONVERGED AFTER   2  ITERATIONS
 ALL LAKES CONVERGED AFTER   2  ITERATIONS
 ALL LAKES CONVERGED AFTER   2  ITERATIONS
 ALL LAKES CONVERGED AFTER   2  ITERATIONS
 ALL LAKES CONVERGED AFTER   2  ITERATIONS
 ALL LAKES CONVERGED AFTER   2  ITERATIONS
    14 ITERATIONS FOR TIME STEP  90 IN STRESS PERIOD    1

 MAXIMUM HEAD CHANGE FOR EACH ITERATION:

    HEAD CHANGE   HEAD CHANGE   HEAD CHANGE   HEAD CHANGE   HEAD CHANGE
  LAYER,ROW,COL LAYER,ROW,COL LAYER,ROW,COL LAYER,ROW,COL LAYER,ROW,COL
 ----------------------------------------------------------------------
     0.8082E-03    0.6933E-03    0.7896E-03    0.5081E-03    0.6781E-03
  (  3, 10,  8) (  5,  7,  9) (  5, 10,  8) (  2,  7, 11) (  3, 10,  8)
     0.3565E-03    0.3066E-03    0.2446E-03    0.3233E-03    0.1806E-03
  (  2,  7,  7) (  5, 10,  8) (  3,  8, 10) (  5, 10,  8) (  3,  8, 10)
     0.2247E-03    0.1304E-03    0.1460E-03    0.8896E-04
  (  3,  8,  8) (  5,  9,  9) (  5, 10,  8) (  2,  9, 11)


 HEAD/DRAWDOWN PRINTOUT FLAG = 1     TOTAL BUDGET PRINTOUT FLAG = 1
 CELL-BY-CELL FLOW TERM FLAG = 1

 OUTPUT FLAGS FOR EACH LAYER:
          HEAD    DRAWDOWN  HEAD  DRAWDOWN
 LAYER  PRINTOUT  PRINTOUT  SAVE    SAVE
 -----------------------------------------
    1       0         0       0       0
    2       0         0       0       0
    3       0         0       0       0
    4       0         0       0       0
    5       1         0       0       0


     0  LAKE CELLS ARE DRY.

 PERIOD     1     TIME STEP    90     TIME STEP LENGTH  9.3306E+01
 PERIOD TIME  3.9579E+03     TOTAL SIMULATION TIME  3.9579E+03


                 HYDROLOGIC BUDGET SUMMARIES FOR SIMULATED LAKES
     (ALL FLUID FLUXES ARE VOLUMES ADDED TO THE LAKE DURING PRESENT TIME STEP)
     ----------------------------------------------------------------------------------------
 LAKE    STAGE       PRECIP         EVAP         RUNOFF
   1  1.482673E+02  6.764649E+06  6.006542E+06  0.000000E+00

            GROUND WATER            SURFACE WATER
 LAKE    INFLOW     OUTFLOW      INFLOW     OUTFLOW
   1  1.5843E+06  2.3172E+06  0.0000E+00  0.0000E+00

         WATER    CONNECTED LAKE   UPDATED     TIME-STEP          STAGE CHANGE
 LAKE     USE         INFLUX        VOLUME    SURFACE AREA   TIME STEP  CUMULATIVE
   1   0.0000E+00   0.0000E+00   2.8042E+08    6.2500E+06   3.7241E-03  3.8267E+01
 --------------------------------------------------------------------------------



            CUMULATIVE HYDROLOGIC BUDGET SUMMARIES FOR SIMULATED LAKES
     (ALL FLUID FLUXES ARE SUMS OF VOLUMES ADDED TO THE LAKE SINCE INITIAL TIME)
     ---------------------------------------------------------------------------
 LAKE       PRECIP       EVAP       RUNOFF
   1     2.8695E+08  2.5479E+08  0.0000E+00

            GROUND WATER            SURFACE WATER
 LAKE    INFLOW     OUTFLOW      INFLOW     OUTFLOW
   1  2.5996E+08  5.2857E+07  0.0000E+00  0.0000E+00

         WATER    CONNECTED LAKE
 LAKE     USE         INFLUX
   1   0.0000E+00   0.0000E+00
 --------------------------------------------------------------------------------

1
              HEAD IN LAYER   5 AT END OF TIME STEP  90 IN STRESS PERIOD    1
  ---------------------------------------------------------------------------

          1      2      3      4      5      6      7      8      9     10
 .........................................................................
   1   160.0  158.9  157.3  155.8  154.2  152.7  151.5  150.8  150.0  149.2
   2   160.0  158.6  156.7  155.1  153.4  151.9  150.7  149.9  149.1  148.4
   3   160.0  158.4  156.3  154.5  152.8  151.1  150.0  149.2  148.4  147.6
   4   160.0  158.3  156.1  154.2  152.4  150.8  149.6  148.8  148.0  147.3
   5   160.0  158.2  155.9  154.0  152.2  150.5  149.4  148.6  147.9  147.2
   6   160.0  158.2  155.9  153.9  152.0  150.3  149.1  148.5  148.0  147.5
   7   160.0  158.2  155.9  153.8  152.0  150.1  148.3  148.3  148.3  148.2
   8   160.0  158.2  155.8  153.8  151.9  150.0  148.3  148.3  148.3  148.3
   9   160.0  158.2  155.8  153.8  151.9  150.0  148.3  148.3  148.3  148.3
  10   160.0  158.2  155.8  153.8  151.9  150.0  148.3  148.3  148.3  148.3
  11   160.0  158.2  155.9  153.8  152.0  150.1  148.3  148.3  148.3  148.2
  12   160.0  158.2  155.9  153.9  152.0  150.3  149.1  148.5  148.0  147.5
  13   160.0  158.2  155.9  154.0  152.2  150.5  149.4  148.6  147.9  147.2
  14   160.0  158.3  156.1  154.2  152.4  150.8  149.6  148.8  148.0  147.3
  15   160.0  158.4  156.3  154.5  152.8  151.1  150.0  149.2  148.4  147.6
  16   160.0  158.6  156.7  155.1  153.4  151.9  150.7  149.9  149.1  148.4
  17   160.0  158.9  157.3  155.8  154.2  152.7  151.5  150.8  150.0  149.2
1
              HEAD IN LAYER   5 AT END OF TIME STEP  90 IN STRESS PERIOD    1
  ---------------------------------------------------------------------------

         11     12     13     14     15     16     17
 ....................................................
   1   148.5  147.3  145.8  144.2  142.7  141.1  140.0
   2   147.6  146.4  144.9  143.4  141.9  140.6  140.0
   3   146.9  145.7  144.2  142.7  141.4  140.3  140.0
   4   146.5  145.4  143.8  142.4  141.1  140.2  140.0
   5   146.5  145.3  143.7  142.3  141.0  140.1  140.0
   6   146.8  145.5  143.8  142.2  141.0  140.1  140.0
   7   148.1  145.9  143.9  142.3  141.0  140.1  140.0
   8   148.2  146.0  143.9  142.3  141.0  140.1  140.0
   9   148.2  146.0  143.9  142.3  141.0  140.1  140.0
  10   148.2  146.0  143.9  142.3  141.0  140.1  140.0
  11   148.1  145.9  143.9  142.3  141.0  140.1  140.0
  12   146.8  145.5  143.8  142.2  141.0  140.1  140.0
  13   146.5  145.3  143.7  142.3  141.0  140.1  140.0
  14   146.5  145.4  143.8  142.4  141.1  140.2  140.0
  15   146.9  145.7  144.2  142.7  141.4  140.3  140.0
  16   147.6  146.4  144.9  143.4  141.9  140.6  140.0
  17   148.5  147.3  145.8  144.2  142.7  141.1  140.0
1
  VOLUMETRIC BUDGET FOR ENTIRE MODEL AT END OF TIME STEP 90 IN STRESS PERIOD   1
  ------------------------------------------------------------------------------

     CUMULATIVE VOLUMES      L**3       RATES FOR THIS TIME STEP      L**3/T
     ------------------                 ------------------------

           IN:                                      IN:
           ---                                      ---
             STORAGE =       32205.5820               STORAGE =           0.0000
       CONSTANT HEAD =  1116820992.0000         CONSTANT HEAD =      166931.6719
                  ET =           0.0000                    ET =           0.0000
            RECHARGE =  6886742016.0000              RECHARGE =     1740000.0000
     SPECIFIED FLOWS =           0.0000       SPECIFIED FLOWS =           0.0000
       LAKE  SEEPAGE =    52856876.0000         LAKE  SEEPAGE =       24834.3008

            TOTAL IN =  8056452096.0000              TOTAL IN =     1931766.0000

          OUT:                                     OUT:
          ----                                     ----
             STORAGE =  1011629760.0000               STORAGE =         183.6207
       CONSTANT HEAD =    28542566.0000         CONSTANT HEAD =        9475.3672
                  ET =  6756246016.0000                    ET =     1905091.6250
            RECHARGE =           0.0000              RECHARGE =           0.0000
     SPECIFIED FLOWS =           0.0000       SPECIFIED FLOWS =           0.0000
       LAKE  SEEPAGE =   259957232.0000         LAKE  SEEPAGE =       16979.5508

           TOTAL OUT =  8056375808.0000             TOTAL OUT =     1931730.1250

            IN - OUT =       76288.0000              IN - OUT =          35.8750

 PERCENT DISCREPANCY =           0.00     PERCENT DISCREPANCY =           0.00






          TIME SUMMARY AT END OF TIME STEP  90 IN STRESS PERIOD    1
                    SECONDS     MINUTES      HOURS       DAYS        YEARS
                    -----------------------------------------------------------
   TIME STEP LENGTH 8.06160E+06 1.34360E+05  2239.3      93.306     0.25546    
 STRESS PERIOD TIME 3.41962E+08 5.69937E+06  94990.      3957.9      10.836    
         TOTAL TIME 3.41962E+08 5.69937E+06  94990.      3957.9      10.836    
1
 
 SOLVING FOR HEAD 
 ALL LAKES CONVERGED AFTER   2  ITERATIONS
 ALL LAKES CONVERGED AFTER   2  ITERATIONS
 ALL LAKES CONVERGED AFTER   2  ITERATIONS
 ALL LAKES CONVERGED AFTER   2  ITERATIONS
 ALL LAKES CONVERGED AFTER   2  ITERATIONS
 ALL LAKES CONVERGED AFTER   2  ITERATIONS
 ALL LAKES CONVERGED AFTER   2  ITERATIONS
 ALL LAKES CONVERGED AFTER   2  ITERATIONS
 ALL LAKES CONVERGED AFTER   2  ITERATIONS
 ALL LAKES CONVERGED AFTER   2  ITERATIONS
 ALL LAKES CONVERGED AFTER   1  ITERATIONS
 ALL LAKES CONVERGED AFTER   2  ITERATIONS
 ALL LAKES CONVERGED AFTER   2  ITERATIONS
 ALL LAKES CONVERGED AFTER   2  ITERATIONS
    14 ITERATIONS FOR TIME STEP  91 IN STRESS PERIOD    1

 MAXIMUM HEAD CHANGE FOR EACH ITERATION:

    HEAD CHANGE   HEAD CHANGE   HEAD CHANGE   HEAD CHANGE   HEAD CHANGE
  LAYER,ROW,COL LAYER,ROW,COL LAYER,ROW,COL LAYER,ROW,COL LAYER,ROW,COL
 ----------------------------------------------------------------------
     0.7085E-03    0.5745E-03    0.6510E-03    0.4235E-03    0.5690E-03
  (  3, 10, 10) (  4, 10, 11) (  5, 10,  8) (  3,  8, 10) (  3, 10,  8)
     0.2982E-03    0.2612E-03    0.2042E-03    0.2756E-03    0.1576E-03
  (  2,  7,  7) (  5, 10,  8) (  3,  8, 10) (  3, 10,  8) (  2,  7, 10)
     0.1883E-03    0.1079E-03    0.1264E-03    0.8022E-04
  (  2,  7,  7) (  5,  9,  9) (  5, 10,  8) (  3,  8, 10)


 HEAD/DRAWDOWN PRINTOUT FLAG = 0     TOTAL BUDGET PRINTOUT FLAG = 0
 CELL-BY-CELL FLOW TERM FLAG = 1

 OUTPUT FLAGS FOR ALL LAYERS ARE THE SAME:
   HEAD    DRAWDOWN  HEAD  DRAWDOWN
 PRINTOUT  PRINTOUT  SAVE    SAVE
 ----------------------------------
     0         0       0       0


     0  LAKE CELLS ARE DRY.

 PERIOD     1     TIME STEP    91     TIME STEP LENGTH  9.5172E+01
 PERIOD TIME  4.0531E+03     TOTAL SIMULATION TIME  4.0531E+03


                 HYDROLOGIC BUDGET SUMMARIES FOR SIMULATED LAKES
     (ALL FLUID FLUXES ARE VOLUMES ADDED TO THE LAKE DURING PRESENT TIME STEP)
     ----------------------------------------------------------------------------------------
 LAKE    STAGE       PRECIP         EVAP         RUNOFF
   1  1.482707E+02  6.899942E+06  6.126673E+06  0.000000E+00

            GROUND WATER            SURFACE WATER
 LAKE    INFLOW     OUTFLOW      INFLOW     OUTFLOW
   1  1.6145E+06  2.3652E+06  0.0000E+00  0.0000E+00

         WATER    CONNECTED LAKE   UPDATED     TIME-STEP          STAGE CHANGE
 LAKE     USE         INFLUX        VOLUME    SURFACE AREA   TIME STEP  CUMULATIVE
   1   0.0000E+00   0.0000E+00   2.8044E+08    6.2500E+06   3.3269E-03  3.8271E+01
 --------------------------------------------------------------------------------



            CUMULATIVE HYDROLOGIC BUDGET SUMMARIES FOR SIMULATED LAKES
     (ALL FLUID FLUXES ARE SUMS OF VOLUMES ADDED TO THE LAKE SINCE INITIAL TIME)
     ---------------------------------------------------------------------------
 LAKE       PRECIP       EVAP       RUNOFF
   1     2.9385E+08  2.6092E+08  0.0000E+00

            GROUND WATER            SURFACE WATER
 LAKE    INFLOW     OUTFLOW      INFLOW     OUTFLOW
   1  2.6157E+08  5.5222E+07  0.0000E+00  0.0000E+00

         WATER    CONNECTED LAKE
 LAKE     USE         INFLUX
   1   0.0000E+00   0.0000E+00
 --------------------------------------------------------------------------------

 
 SOLVING FOR HEAD 
 ALL LAKES CONVERGED AFTER   2  ITERATIONS
 ALL LAKES CONVERGED AFTER   2  ITERATIONS
 ALL LAKES CONVERGED AFTER   2  ITERATIONS
 ALL LAKES CONVERGED AFTER   2  ITERATIONS
 ALL LAKES CONVERGED AFTER   2  ITERATIONS
 ALL LAKES CONVERGED AFTER   2  ITERATIONS
 ALL LAKES CONVERGED AFTER   2  ITERATIONS
 ALL LAKES CONVERGED AFTER   2  ITERATIONS
 ALL LAKES CONVERGED AFTER   2  ITERATIONS
 ALL LAKES CONVERGED AFTER   2  ITERATIONS
 ALL LAKES CONVERGED AFTER   1  ITERATIONS
 ALL LAKES CONVERGED AFTER   2  ITERATIONS
    12 ITERATIONS FOR TIME STEP  92 IN STRESS PERIOD    1

 MAXIMUM HEAD CHANGE FOR EACH ITERATION:

    HEAD CHANGE   HEAD CHANGE   HEAD CHANGE   HEAD CHANGE   HEAD CHANGE
  LAYER,ROW,COL LAYER,ROW,COL LAYER,ROW,COL LAYER,ROW,COL LAYER,ROW,COL
 ----------------------------------------------------------------------
     0.6032E-03    0.4946E-03    0.5587E-03    0.3630E-03    0.4886E-03
  (  3,  8,  8) (  5,  9,  9) (  5, 10,  8) (  3,  8, 10) (  3, 10,  8)
     0.2593E-03    0.2264E-03    0.1831E-03    0.2464E-03    0.1377E-03
  (  2,  7,  7) (  5,  9,  7) (  3,  8, 10) (  3, 10,  8) (  2,  7, 11)
     0.1621E-03    0.9712E-04
  (  2, 11, 11) (  5,  9,  9)


 HEAD/DRAWDOWN PRINTOUT FLAG = 0     TOTAL BUDGET PRINTOUT FLAG = 0
 CELL-BY-CELL FLOW TERM FLAG = 1

 OUTPUT FLAGS FOR ALL LAYERS ARE THE SAME:
   HEAD    DRAWDOWN  HEAD  DRAWDOWN
 PRINTOUT  PRINTOUT  SAVE    SAVE
 ----------------------------------
     0         0       0       0


     0  LAKE CELLS ARE DRY.

 PERIOD     1     TIME STEP    92     TIME STEP LENGTH  9.7075E+01
 PERIOD TIME  4.1501E+03     TOTAL SIMULATION TIME  4.1501E+03


                 HYDROLOGIC BUDGET SUMMARIES FOR SIMULATED LAKES
     (ALL FLUID FLUXES ARE VOLUMES ADDED TO THE LAKE DURING PRESENT TIME STEP)
     ----------------------------------------------------------------------------------------
 LAKE    STAGE       PRECIP         EVAP         RUNOFF
   1  1.482732E+02  7.037940E+06  6.249206E+06  0.000000E+00

            GROUND WATER            SURFACE WATER
 LAKE    INFLOW     OUTFLOW      INFLOW     OUTFLOW
   1  1.6459E+06  2.4143E+06  0.0000E+00  0.0000E+00

         WATER    CONNECTED LAKE   UPDATED     TIME-STEP          STAGE CHANGE
 LAKE     USE         INFLUX        VOLUME    SURFACE AREA   TIME STEP  CUMULATIVE
   1   0.0000E+00   0.0000E+00   2.8046E+08    6.2500E+06   2.5616E-03  3.8273E+01
 --------------------------------------------------------------------------------



            CUMULATIVE HYDROLOGIC BUDGET SUMMARIES FOR SIMULATED LAKES
     (ALL FLUID FLUXES ARE SUMS OF VOLUMES ADDED TO THE LAKE SINCE INITIAL TIME)
     ---------------------------------------------------------------------------
 LAKE       PRECIP       EVAP       RUNOFF
   1     3.0089E+08  2.6717E+08  0.0000E+00

            GROUND WATER            SURFACE WATER
 LAKE    INFLOW     OUTFLOW      INFLOW     OUTFLOW
   1  2.6322E+08  5.7636E+07  0.0000E+00  0.0000E+00

         WATER    CONNECTED LAKE
 LAKE     USE         INFLUX
   1   0.0000E+00   0.0000E+00
 --------------------------------------------------------------------------------

 
 SOLVING FOR HEAD 
 ALL LAKES CONVERGED AFTER   2  ITERATIONS
 ALL LAKES CONVERGED AFTER   2  ITERATIONS
 ALL LAKES CONVERGED AFTER   2  ITERATIONS
 ALL LAKES CONVERGED AFTER   2  ITERATIONS
 ALL LAKES CONVERGED AFTER   2  ITERATIONS
 ALL LAKES CONVERGED AFTER   2  ITERATIONS
 ALL LAKES CONVERGED AFTER   2  ITERATIONS
 ALL LAKES CONVERGED AFTER   2  ITERATIONS
 ALL LAKES CONVERGED AFTER   2  ITERATIONS
 ALL LAKES CONVERGED AFTER   2  ITERATIONS
 ALL LAKES CONVERGED AFTER   1  ITERATIONS
 ALL LAKES CONVERGED AFTER   2  ITERATIONS
    12 ITERATIONS FOR TIME STEP  93 IN STRESS PERIOD    1

 MAXIMUM HEAD CHANGE FOR EACH ITERATION:

    HEAD CHANGE   HEAD CHANGE   HEAD CHANGE   HEAD CHANGE   HEAD CHANGE
  LAYER,ROW,COL LAYER,ROW,COL LAYER,ROW,COL LAYER,ROW,COL LAYER,ROW,COL
 ----------------------------------------------------------------------
     0.4964E-03    0.4037E-03    0.4575E-03    0.3090E-03    0.4095E-03
  (  3, 10,  8) (  4,  9, 11) (  5, 10,  8) (  2,  7,  9) (  3, 10,  8)
     0.2189E-03    0.1827E-03    0.1432E-03    0.2006E-03    0.1104E-03
  (  2,  7,  7) (  5, 11, 10) (  3,  8, 10) (  5, 10,  8) (  3,  8, 10)
     0.1405E-03    0.8177E-04
  (  3,  8,  8) (  4, 10, 11)


 HEAD/DRAWDOWN PRINTOUT FLAG = 0     TOTAL BUDGET PRINTOUT FLAG = 0
 CELL-BY-CELL FLOW TERM FLAG = 1

 OUTPUT FLAGS FOR ALL LAYERS ARE THE SAME:
   HEAD    DRAWDOWN  HEAD  DRAWDOWN
 PRINTOUT  PRINTOUT  SAVE    SAVE
 ----------------------------------
     0         0       0       0


     0  LAKE CELLS ARE DRY.

 PERIOD     1     TIME STEP    93     TIME STEP LENGTH  9.9017E+01
 PERIOD TIME  4.2492E+03     TOTAL SIMULATION TIME  4.2492E+03


                 HYDROLOGIC BUDGET SUMMARIES FOR SIMULATED LAKES
     (ALL FLUID FLUXES ARE VOLUMES ADDED TO THE LAKE DURING PRESENT TIME STEP)
     ----------------------------------------------------------------------------------------
 LAKE    STAGE       PRECIP         EVAP         RUNOFF
   1  1.482755E+02  7.178699E+06  6.374190E+06  0.000000E+00

            GROUND WATER            SURFACE WATER
 LAKE    INFLOW     OUTFLOW      INFLOW     OUTFLOW
   1  1.6775E+06  2.4642E+06  0.0000E+00  0.0000E+00

         WATER    CONNECTED LAKE   UPDATED     TIME-STEP          STAGE CHANGE
 LAKE     USE         INFLUX        VOLUME    SURFACE AREA   TIME STEP  CUMULATIVE
   1   0.0000E+00   0.0000E+00   2.8047E+08    6.2500E+06   2.2913E-03  3.8276E+01
 --------------------------------------------------------------------------------



            CUMULATIVE HYDROLOGIC BUDGET SUMMARIES FOR SIMULATED LAKES
     (ALL FLUID FLUXES ARE SUMS OF VOLUMES ADDED TO THE LAKE SINCE INITIAL TIME)
     ---------------------------------------------------------------------------
 LAKE       PRECIP       EVAP       RUNOFF
   1     3.0806E+08  2.7354E+08  0.0000E+00

            GROUND WATER            SURFACE WATER
 LAKE    INFLOW     OUTFLOW      INFLOW     OUTFLOW
   1  2.6490E+08  6.0101E+07  0.0000E+00  0.0000E+00

         WATER    CONNECTED LAKE
 LAKE     USE         INFLUX
   1   0.0000E+00   0.0000E+00
 --------------------------------------------------------------------------------

 
 SOLVING FOR HEAD 
 ALL LAKES CONVERGED AFTER   2  ITERATIONS
 ALL LAKES CONVERGED AFTER   2  ITERATIONS
 ALL LAKES CONVERGED AFTER   2  ITERATIONS
 ALL LAKES CONVERGED AFTER   2  ITERATIONS
 ALL LAKES CONVERGED AFTER   2  ITERATIONS
 ALL LAKES CONVERGED AFTER   2  ITERATIONS
 ALL LAKES CONVERGED AFTER   2  ITERATIONS
 ALL LAKES CONVERGED AFTER   2  ITERATIONS
 ALL LAKES CONVERGED AFTER   2  ITERATIONS
 ALL LAKES CONVERGED AFTER   2  ITERATIONS
 ALL LAKES CONVERGED AFTER   1  ITERATIONS
 ALL LAKES CONVERGED AFTER   2  ITERATIONS
    12 ITERATIONS FOR TIME STEP  94 IN STRESS PERIOD    1

 MAXIMUM HEAD CHANGE FOR EACH ITERATION:

    HEAD CHANGE   HEAD CHANGE   HEAD CHANGE   HEAD CHANGE   HEAD CHANGE
  LAYER,ROW,COL LAYER,ROW,COL LAYER,ROW,COL LAYER,ROW,COL LAYER,ROW,COL
 ----------------------------------------------------------------------
     0.4324E-03    0.3598E-03    0.4095E-03    0.2622E-03    0.3591E-03
  (  3, 10,  8) (  5,  7,  9) (  5, 10,  8) (  3,  8, 10) (  3, 10,  8)
     0.1921E-03    0.1700E-03    0.1329E-03    0.1806E-03    0.1003E-03
  (  2,  7,  7) (  5, 10,  8) (  3,  8, 10) (  3, 10,  8) (  3,  8, 10)
     0.1224E-03    0.7537E-04
  (  2,  7,  7) (  5,  9,  9)


 HEAD/DRAWDOWN PRINTOUT FLAG = 0     TOTAL BUDGET PRINTOUT FLAG = 0
 CELL-BY-CELL FLOW TERM FLAG = 1

 OUTPUT FLAGS FOR ALL LAYERS ARE THE SAME:
   HEAD    DRAWDOWN  HEAD  DRAWDOWN
 PRINTOUT  PRINTOUT  SAVE    SAVE
 ----------------------------------
     0         0       0       0


     0  LAKE CELLS ARE DRY.

 PERIOD     1     TIME STEP    94     TIME STEP LENGTH  1.0100E+02
 PERIOD TIME  4.3502E+03     TOTAL SIMULATION TIME  4.3502E+03


                 HYDROLOGIC BUDGET SUMMARIES FOR SIMULATED LAKES
     (ALL FLUID FLUXES ARE VOLUMES ADDED TO THE LAKE DURING PRESENT TIME STEP)
     ----------------------------------------------------------------------------------------
 LAKE    STAGE       PRECIP         EVAP         RUNOFF
   1  1.482775E+02  7.322273E+06  6.501674E+06  0.000000E+00

            GROUND WATER            SURFACE WATER
 LAKE    INFLOW     OUTFLOW      INFLOW     OUTFLOW
   1  1.7099E+06  2.5148E+06  0.0000E+00  0.0000E+00

         WATER    CONNECTED LAKE   UPDATED     TIME-STEP          STAGE CHANGE
 LAKE     USE         INFLUX        VOLUME    SURFACE AREA   TIME STEP  CUMULATIVE
   1   0.0000E+00   0.0000E+00   2.8048E+08    6.2500E+06   1.9463E-03  3.8277E+01
 --------------------------------------------------------------------------------



            CUMULATIVE HYDROLOGIC BUDGET SUMMARIES FOR SIMULATED LAKES
     (ALL FLUID FLUXES ARE SUMS OF VOLUMES ADDED TO THE LAKE SINCE INITIAL TIME)
     ---------------------------------------------------------------------------
 LAKE       PRECIP       EVAP       RUNOFF
   1     3.1539E+08  2.8004E+08  0.0000E+00

            GROUND WATER            SURFACE WATER
 LAKE    INFLOW     OUTFLOW      INFLOW     OUTFLOW
   1  2.6660E+08  6.2615E+07  0.0000E+00  0.0000E+00

         WATER    CONNECTED LAKE
 LAKE     USE         INFLUX
   1   0.0000E+00   0.0000E+00
 --------------------------------------------------------------------------------

 
 SOLVING FOR HEAD 
 ALL LAKES CONVERGED AFTER   2  ITERATIONS
 ALL LAKES CONVERGED AFTER   2  ITERATIONS
 ALL LAKES CONVERGED AFTER   2  ITERATIONS
 ALL LAKES CONVERGED AFTER   2  ITERATIONS
 ALL LAKES CONVERGED AFTER   2  ITERATIONS
 ALL LAKES CONVERGED AFTER   2  ITERATIONS
 ALL LAKES CONVERGED AFTER   2  ITERATIONS
 ALL LAKES CONVERGED AFTER   2  ITERATIONS
 ALL LAKES CONVERGED AFTER   2  ITERATIONS
 ALL LAKES CONVERGED AFTER   2  ITERATIONS
    10 ITERATIONS FOR TIME STEP  95 IN STRESS PERIOD    1

 MAXIMUM HEAD CHANGE FOR EACH ITERATION:

    HEAD CHANGE   HEAD CHANGE   HEAD CHANGE   HEAD CHANGE   HEAD CHANGE
  LAYER,ROW,COL LAYER,ROW,COL LAYER,ROW,COL LAYER,ROW,COL LAYER,ROW,COL
 ----------------------------------------------------------------------
     0.3562E-03    0.3004E-03    0.3359E-03    0.2218E-03    0.2992E-03
  (  3, 10,  8) (  5,  8, 10) (  5, 10,  8) (  3,  8, 10) (  3, 10,  8)
     0.1632E-03    0.1392E-03    0.1124E-03    0.1519E-03    0.8027E-04
  (  2,  7,  7) (  5, 11, 10) (  3,  8, 10) (  3, 10,  8) (  3,  8, 10)


 HEAD/DRAWDOWN PRINTOUT FLAG = 0     TOTAL BUDGET PRINTOUT FLAG = 0
 CELL-BY-CELL FLOW TERM FLAG = 1

 OUTPUT FLAGS FOR ALL LAYERS ARE THE SAME:
   HEAD    DRAWDOWN  HEAD  DRAWDOWN
 PRINTOUT  PRINTOUT  SAVE    SAVE
 ----------------------------------
     0         0       0       0


     0  LAKE CELLS ARE DRY.

 PERIOD     1     TIME STEP    95     TIME STEP LENGTH  1.0302E+02
 PERIOD TIME  4.4532E+03     TOTAL SIMULATION TIME  4.4532E+03


                 HYDROLOGIC BUDGET SUMMARIES FOR SIMULATED LAKES
     (ALL FLUID FLUXES ARE VOLUMES ADDED TO THE LAKE DURING PRESENT TIME STEP)
     ----------------------------------------------------------------------------------------
 LAKE    STAGE       PRECIP         EVAP         RUNOFF
   1  1.482790E+02  7.468718E+06  6.631707E+06  0.000000E+00

            GROUND WATER            SURFACE WATER
 LAKE    INFLOW     OUTFLOW      INFLOW     OUTFLOW
   1  1.7414E+06  2.5676E+06  0.0000E+00  0.0000E+00

         WATER    CONNECTED LAKE   UPDATED     TIME-STEP          STAGE CHANGE
 LAKE     USE         INFLUX        VOLUME    SURFACE AREA   TIME STEP  CUMULATIVE
   1   0.0000E+00   0.0000E+00   2.8049E+08    6.2500E+06   1.4885E-03  3.8279E+01
 --------------------------------------------------------------------------------



            CUMULATIVE HYDROLOGIC BUDGET SUMMARIES FOR SIMULATED LAKES
     (ALL FLUID FLUXES ARE SUMS OF VOLUMES ADDED TO THE LAKE SINCE INITIAL TIME)
     ---------------------------------------------------------------------------
 LAKE       PRECIP       EVAP       RUNOFF
   1     3.2286E+08  2.8667E+08  0.0000E+00

            GROUND WATER            SURFACE WATER
 LAKE    INFLOW     OUTFLOW      INFLOW     OUTFLOW
   1  2.6835E+08  6.5183E+07  0.0000E+00  0.0000E+00

         WATER    CONNECTED LAKE
 LAKE     USE         INFLUX
   1   0.0000E+00   0.0000E+00
 --------------------------------------------------------------------------------

 
 SOLVING FOR HEAD 
 ALL LAKES CONVERGED AFTER   2  ITERATIONS
 ALL LAKES CONVERGED AFTER   2  ITERATIONS
 ALL LAKES CONVERGED AFTER   2  ITERATIONS
 ALL LAKES CONVERGED AFTER   2  ITERATIONS
 ALL LAKES CONVERGED AFTER   2  ITERATIONS
 ALL LAKES CONVERGED AFTER   2  ITERATIONS
 ALL LAKES CONVERGED AFTER   2  ITERATIONS
 ALL LAKES CONVERGED AFTER   2  ITERATIONS
     8 ITERATIONS FOR TIME STEP  96 IN STRESS PERIOD    1

 MAXIMUM HEAD CHANGE FOR EACH ITERATION:

    HEAD CHANGE   HEAD CHANGE   HEAD CHANGE   HEAD CHANGE   HEAD CHANGE
  LAYER,ROW,COL LAYER,ROW,COL LAYER,ROW,COL LAYER,ROW,COL LAYER,ROW,COL
 ----------------------------------------------------------------------
     0.3284E-03    0.2631E-03    0.2898E-03    0.1916E-03    0.2593E-03
  (  3,  8,  8) (  5,  7,  8) (  5, 10,  8) (  3,  8, 10) (  3, 10,  8)
     0.1389E-03    0.1243E-03    0.9998E-04
  (  3,  9, 10) (  5, 10,  8) (  2,  9, 11)


 HEAD/DRAWDOWN PRINTOUT FLAG = 0     TOTAL BUDGET PRINTOUT FLAG = 0
 CELL-BY-CELL FLOW TERM FLAG = 1

 OUTPUT FLAGS FOR ALL LAYERS ARE THE SAME:
   HEAD    DRAWDOWN  HEAD  DRAWDOWN
 PRINTOUT  PRINTOUT  SAVE    SAVE
 ----------------------------------
     0         0       0       0


     0  LAKE CELLS ARE DRY.

 PERIOD     1     TIME STEP    96     TIME STEP LENGTH  1.0508E+02
 PERIOD TIME  4.5583E+03     TOTAL SIMULATION TIME  4.5583E+03


                 HYDROLOGIC BUDGET SUMMARIES FOR SIMULATED LAKES
     (ALL FLUID FLUXES ARE VOLUMES ADDED TO THE LAKE DURING PRESENT TIME STEP)
     ----------------------------------------------------------------------------------------
 LAKE    STAGE       PRECIP         EVAP         RUNOFF
   1  1.482802E+02  7.618092E+06  6.764341E+06  0.000000E+00

            GROUND WATER            SURFACE WATER
 LAKE    INFLOW     OUTFLOW      INFLOW     OUTFLOW
   1  1.7758E+06  2.6194E+06  0.0000E+00  0.0000E+00

         WATER    CONNECTED LAKE   UPDATED     TIME-STEP          STAGE CHANGE
 LAKE     USE         INFLUX        VOLUME    SURFACE AREA   TIME STEP  CUMULATIVE
   1   0.0000E+00   0.0000E+00   2.8050E+08    6.2500E+06   1.2064E-03  3.8280E+01
 --------------------------------------------------------------------------------



            CUMULATIVE HYDROLOGIC BUDGET SUMMARIES FOR SIMULATED LAKES
     (ALL FLUID FLUXES ARE SUMS OF VOLUMES ADDED TO THE LAKE SINCE INITIAL TIME)
     ---------------------------------------------------------------------------
 LAKE       PRECIP       EVAP       RUNOFF
   1     3.3047E+08  2.9344E+08  0.0000E+00

            GROUND WATER            SURFACE WATER
 LAKE    INFLOW     OUTFLOW      INFLOW     OUTFLOW
   1  2.7012E+08  6.7802E+07  0.0000E+00  0.0000E+00

         WATER    CONNECTED LAKE
 LAKE     USE         INFLUX
   1   0.0000E+00   0.0000E+00
 --------------------------------------------------------------------------------

 
 SOLVING FOR HEAD 
 ALL LAKES CONVERGED AFTER   2  ITERATIONS
 ALL LAKES CONVERGED AFTER   2  ITERATIONS
 ALL LAKES CONVERGED AFTER   2  ITERATIONS
 ALL LAKES CONVERGED AFTER   2  ITERATIONS
 ALL LAKES CONVERGED AFTER   2  ITERATIONS
 ALL LAKES CONVERGED AFTER   2  ITERATIONS
 ALL LAKES CONVERGED AFTER   2  ITERATIONS
 ALL LAKES CONVERGED AFTER   2  ITERATIONS
     8 ITERATIONS FOR TIME STEP  97 IN STRESS PERIOD    1

 MAXIMUM HEAD CHANGE FOR EACH ITERATION:

    HEAD CHANGE   HEAD CHANGE   HEAD CHANGE   HEAD CHANGE   HEAD CHANGE
  LAYER,ROW,COL LAYER,ROW,COL LAYER,ROW,COL LAYER,ROW,COL LAYER,ROW,COL
 ----------------------------------------------------------------------
     0.2917E-03    0.2249E-03    0.2552E-03    0.1691E-03    0.2194E-03
  (  3, 10,  8) (  5,  9,  9) (  5, 10,  8) (  2,  7, 11) (  3, 10,  8)
     0.1245E-03    0.1154E-03    0.8625E-04
  (  2,  7,  7) (  5, 11, 10) (  2,  7,  8)


 HEAD/DRAWDOWN PRINTOUT FLAG = 0     TOTAL BUDGET PRINTOUT FLAG = 0
 CELL-BY-CELL FLOW TERM FLAG = 1

 OUTPUT FLAGS FOR ALL LAYERS ARE THE SAME:
   HEAD    DRAWDOWN  HEAD  DRAWDOWN
 PRINTOUT  PRINTOUT  SAVE    SAVE
 ----------------------------------
     0         0       0       0


     0  LAKE CELLS ARE DRY.

 PERIOD     1     TIME STEP    97     TIME STEP LENGTH  1.0718E+02
 PERIOD TIME  4.6654E+03     TOTAL SIMULATION TIME  4.6654E+03


                 HYDROLOGIC BUDGET SUMMARIES FOR SIMULATED LAKES
     (ALL FLUID FLUXES ARE VOLUMES ADDED TO THE LAKE DURING PRESENT TIME STEP)
     ----------------------------------------------------------------------------------------
 LAKE    STAGE       PRECIP         EVAP         RUNOFF
   1  1.482811E+02  7.770454E+06  6.899628E+06  0.000000E+00

            GROUND WATER            SURFACE WATER
 LAKE    INFLOW     OUTFLOW      INFLOW     OUTFLOW
   1  1.8108E+06  2.6726E+06  0.0000E+00  0.0000E+00

         WATER    CONNECTED LAKE   UPDATED     TIME-STEP          STAGE CHANGE
 LAKE     USE         INFLUX        VOLUME    SURFACE AREA   TIME STEP  CUMULATIVE
   1   0.0000E+00   0.0000E+00   2.8051E+08    6.2500E+06   9.6550E-04  3.8281E+01
 --------------------------------------------------------------------------------



            CUMULATIVE HYDROLOGIC BUDGET SUMMARIES FOR SIMULATED LAKES
     (ALL FLUID FLUXES ARE SUMS OF VOLUMES ADDED TO THE LAKE SINCE INITIAL TIME)
     ---------------------------------------------------------------------------
 LAKE       PRECIP       EVAP       RUNOFF
   1     3.3824E+08  3.0034E+08  0.0000E+00

            GROUND WATER            SURFACE WATER
 LAKE    INFLOW     OUTFLOW      INFLOW     OUTFLOW
   1  2.7193E+08  7.0475E+07  0.0000E+00  0.0000E+00

         WATER    CONNECTED LAKE
 LAKE     USE         INFLUX
   1   0.0000E+00   0.0000E+00
 --------------------------------------------------------------------------------

 
 SOLVING FOR HEAD 
 ALL LAKES CONVERGED AFTER   2  ITERATIONS
 ALL LAKES CONVERGED AFTER   2  ITERATIONS
 ALL LAKES CONVERGED AFTER   2  ITERATIONS
 ALL LAKES CONVERGED AFTER   2  ITERATIONS
 ALL LAKES CONVERGED AFTER   2  ITERATIONS
 ALL LAKES CONVERGED AFTER   2  ITERATIONS
 ALL LAKES CONVERGED AFTER   2  ITERATIONS
     7 ITERATIONS FOR TIME STEP  98 IN STRESS PERIOD    1

 MAXIMUM HEAD CHANGE FOR EACH ITERATION:

    HEAD CHANGE   HEAD CHANGE   HEAD CHANGE   HEAD CHANGE   HEAD CHANGE
  LAYER,ROW,COL LAYER,ROW,COL LAYER,ROW,COL LAYER,ROW,COL LAYER,ROW,COL
 ----------------------------------------------------------------------
     0.2458E-03    0.1826E-03    0.2073E-03    0.1409E-03    0.1894E-03
  (  3, 10,  8) (  5,  9,  9) (  5, 10,  8) (  3,  8, 10) (  3, 10,  8)
     0.1069E-03    0.9026E-04
  (  2,  9, 11) (  5, 10,  8)


 HEAD/DRAWDOWN PRINTOUT FLAG = 0     TOTAL BUDGET PRINTOUT FLAG = 0
 CELL-BY-CELL FLOW TERM FLAG = 1

 OUTPUT FLAGS FOR ALL LAYERS ARE THE SAME:
   HEAD    DRAWDOWN  HEAD  DRAWDOWN
 PRINTOUT  PRINTOUT  SAVE    SAVE
 ----------------------------------
     0         0       0       0


     0  LAKE CELLS ARE DRY.

 PERIOD     1     TIME STEP    98     TIME STEP LENGTH  1.0932E+02
 PERIOD TIME  4.7748E+03     TOTAL SIMULATION TIME  4.7748E+03


                 HYDROLOGIC BUDGET SUMMARIES FOR SIMULATED LAKES
     (ALL FLUID FLUXES ARE VOLUMES ADDED TO THE LAKE DURING PRESENT TIME STEP)
     ----------------------------------------------------------------------------------------
 LAKE    STAGE       PRECIP         EVAP         RUNOFF
   1  1.482820E+02  7.925863E+06  7.037620E+06  0.000000E+00

            GROUND WATER            SURFACE WATER
 LAKE    INFLOW     OUTFLOW      INFLOW     OUTFLOW
   1  1.8481E+06  2.7257E+06  0.0000E+00  0.0000E+00

         WATER    CONNECTED LAKE   UPDATED     TIME-STEP          STAGE CHANGE
 LAKE     USE         INFLUX        VOLUME    SURFACE AREA   TIME STEP  CUMULATIVE
   1   0.0000E+00   0.0000E+00   2.8051E+08    6.2500E+06   8.5981E-04  3.8282E+01
 --------------------------------------------------------------------------------



            CUMULATIVE HYDROLOGIC BUDGET SUMMARIES FOR SIMULATED LAKES
     (ALL FLUID FLUXES ARE SUMS OF VOLUMES ADDED TO THE LAKE SINCE INITIAL TIME)
     ---------------------------------------------------------------------------
 LAKE       PRECIP       EVAP       RUNOFF
   1     3.4617E+08  3.0737E+08  0.0000E+00

            GROUND WATER            SURFACE WATER
 LAKE    INFLOW     OUTFLOW      INFLOW     OUTFLOW
   1  2.7378E+08  7.3201E+07  0.0000E+00  0.0000E+00

         WATER    CONNECTED LAKE
 LAKE     USE         INFLUX
   1   0.0000E+00   0.0000E+00
 --------------------------------------------------------------------------------

 
 SOLVING FOR HEAD 
 ALL LAKES CONVERGED AFTER   2  ITERATIONS
 ALL LAKES CONVERGED AFTER   2  ITERATIONS
 ALL LAKES CONVERGED AFTER   2  ITERATIONS
 ALL LAKES CONVERGED AFTER   2  ITERATIONS
 ALL LAKES CONVERGED AFTER   1  ITERATIONS
 ALL LAKES CONVERGED AFTER   2  ITERATIONS
     6 ITERATIONS FOR TIME STEP  99 IN STRESS PERIOD    1

 MAXIMUM HEAD CHANGE FOR EACH ITERATION:

    HEAD CHANGE   HEAD CHANGE   HEAD CHANGE   HEAD CHANGE   HEAD CHANGE
  LAYER,ROW,COL LAYER,ROW,COL LAYER,ROW,COL LAYER,ROW,COL LAYER,ROW,COL
 ----------------------------------------------------------------------
     0.1891E-03    0.1620E-03    0.1876E-03    0.1210E-03    0.1696E-03
  (  3,  9,  9) (  5,  8, 10) (  5, 10,  8) (  3,  8, 10) (  3, 10,  8)
     0.9567E-04
  (  2,  7,  7)


 HEAD/DRAWDOWN PRINTOUT FLAG = 0     TOTAL BUDGET PRINTOUT FLAG = 0
 CELL-BY-CELL FLOW TERM FLAG = 1

 OUTPUT FLAGS FOR ALL LAYERS ARE THE SAME:
   HEAD    DRAWDOWN  HEAD  DRAWDOWN
 PRINTOUT  PRINTOUT  SAVE    SAVE
 ----------------------------------
     0         0       0       0


     0  LAKE CELLS ARE DRY.

 PERIOD     1     TIME STEP    99     TIME STEP LENGTH  1.1151E+02
 PERIOD TIME  4.8863E+03     TOTAL SIMULATION TIME  4.8863E+03


                 HYDROLOGIC BUDGET SUMMARIES FOR SIMULATED LAKES
     (ALL FLUID FLUXES ARE VOLUMES ADDED TO THE LAKE DURING PRESENT TIME STEP)
     ----------------------------------------------------------------------------------------
 LAKE    STAGE       PRECIP         EVAP         RUNOFF
   1  1.482827E+02  8.084380E+06  7.178372E+06  0.000000E+00

            GROUND WATER            SURFACE WATER
 LAKE    INFLOW     OUTFLOW      INFLOW     OUTFLOW
   1  1.8843E+06  2.7813E+06  0.0000E+00  0.0000E+00

         WATER    CONNECTED LAKE   UPDATED     TIME-STEP          STAGE CHANGE
 LAKE     USE         INFLUX        VOLUME    SURFACE AREA   TIME STEP  CUMULATIVE
   1   0.0000E+00   0.0000E+00   2.8052E+08    6.2500E+06   6.6422E-04  3.8283E+01
 --------------------------------------------------------------------------------



            CUMULATIVE HYDROLOGIC BUDGET SUMMARIES FOR SIMULATED LAKES
     (ALL FLUID FLUXES ARE SUMS OF VOLUMES ADDED TO THE LAKE SINCE INITIAL TIME)
     ---------------------------------------------------------------------------
 LAKE       PRECIP       EVAP       RUNOFF
   1     3.5425E+08  3.1455E+08  0.0000E+00

            GROUND WATER            SURFACE WATER
 LAKE    INFLOW     OUTFLOW      INFLOW     OUTFLOW
   1  2.7567E+08  7.5982E+07  0.0000E+00  0.0000E+00

         WATER    CONNECTED LAKE
 LAKE     USE         INFLUX
   1   0.0000E+00   0.0000E+00
 --------------------------------------------------------------------------------

 
 SOLVING FOR HEAD 
 ALL LAKES CONVERGED AFTER   2  ITERATIONS
 ALL LAKES CONVERGED AFTER   2  ITERATIONS
 ALL LAKES CONVERGED AFTER   2  ITERATIONS
 ALL LAKES CONVERGED AFTER   2  ITERATIONS
 ALL LAKES CONVERGED AFTER   1  ITERATIONS
 ALL LAKES CONVERGED AFTER   2  ITERATIONS
     6 ITERATIONS FOR TIME STEP 100 IN STRESS PERIOD    1

 MAXIMUM HEAD CHANGE FOR EACH ITERATION:

    HEAD CHANGE   HEAD CHANGE   HEAD CHANGE   HEAD CHANGE   HEAD CHANGE
  LAYER,ROW,COL LAYER,ROW,COL LAYER,ROW,COL LAYER,ROW,COL LAYER,ROW,COL
 ----------------------------------------------------------------------
     0.1599E-03    0.1400E-03    0.1583E-03    0.1008E-03    0.1420E-03
  (  2, 11,  8) (  5,  8, 10) (  5, 10,  8) (  3,  8, 10) (  2, 11,  7)
     0.7409E-04
  (  3,  9, 10)


 HEAD/DRAWDOWN PRINTOUT FLAG = 1     TOTAL BUDGET PRINTOUT FLAG = 1
 CELL-BY-CELL FLOW TERM FLAG = 1

 OUTPUT FLAGS FOR EACH LAYER:
          HEAD    DRAWDOWN  HEAD  DRAWDOWN
 LAYER  PRINTOUT  PRINTOUT  SAVE    SAVE
 -----------------------------------------
    1       0         0       0       0
    2       0         0       0       0
    3       0         0       0       0
    4       0         0       0       0
    5       1         0       0       0


     0  LAKE CELLS ARE DRY.

 PERIOD     1     TIME STEP   100     TIME STEP LENGTH  1.1374E+02
 PERIOD TIME  5.0000E+03     TOTAL SIMULATION TIME  5.0000E+03


                 HYDROLOGIC BUDGET SUMMARIES FOR SIMULATED LAKES
     (ALL FLUID FLUXES ARE VOLUMES ADDED TO THE LAKE DURING PRESENT TIME STEP)
     ----------------------------------------------------------------------------------------
 LAKE    STAGE       PRECIP         EVAP         RUNOFF
   1  1.482833E+02  8.246068E+06  7.321940E+06  0.000000E+00

            GROUND WATER            SURFACE WATER
 LAKE    INFLOW     OUTFLOW      INFLOW     OUTFLOW
   1  1.9213E+06  2.8376E+06  0.0000E+00  0.0000E+00

         WATER    CONNECTED LAKE   UPDATED     TIME-STEP          STAGE CHANGE
 LAKE     USE         INFLUX        VOLUME    SURFACE AREA   TIME STEP  CUMULATIVE
   1   0.0000E+00   0.0000E+00   2.8052E+08    6.2500E+06   6.2515E-04  3.8283E+01
 --------------------------------------------------------------------------------



            CUMULATIVE HYDROLOGIC BUDGET SUMMARIES FOR SIMULATED LAKES
     (ALL FLUID FLUXES ARE SUMS OF VOLUMES ADDED TO THE LAKE SINCE INITIAL TIME)
     ---------------------------------------------------------------------------
 LAKE       PRECIP       EVAP       RUNOFF
   1     3.6250E+08  3.2187E+08  0.0000E+00

            GROUND WATER            SURFACE WATER
 LAKE    INFLOW     OUTFLOW      INFLOW     OUTFLOW
   1  2.7759E+08  7.8820E+07  0.0000E+00  0.0000E+00

         WATER    CONNECTED LAKE
 LAKE     USE         INFLUX
   1   0.0000E+00   0.0000E+00
 --------------------------------------------------------------------------------

1
              HEAD IN LAYER   5 AT END OF TIME STEP 100 IN STRESS PERIOD    1
  ---------------------------------------------------------------------------

          1      2      3      4      5      6      7      8      9     10
 .........................................................................
   1   160.0  158.9  157.3  155.8  154.2  152.7  151.5  150.8  150.0  149.2
   2   160.0  158.6  156.7  155.1  153.4  151.9  150.7  149.9  149.1  148.4
   3   160.0  158.4  156.3  154.5  152.8  151.1  150.0  149.2  148.4  147.6
   4   160.0  158.3  156.1  154.2  152.4  150.8  149.6  148.8  148.1  147.3
   5   160.0  158.2  155.9  154.0  152.2  150.5  149.4  148.6  147.9  147.2
   6   160.0  158.2  155.9  153.9  152.1  150.3  149.1  148.5  148.0  147.5
   7   160.0  158.2  155.9  153.8  152.0  150.1  148.4  148.3  148.3  148.3
   8   160.0  158.2  155.8  153.8  151.9  150.0  148.3  148.3  148.3  148.3
   9   160.0  158.2  155.8  153.8  151.9  150.0  148.3  148.3  148.3  148.3
  10   160.0  158.2  155.8  153.8  151.9  150.0  148.3  148.3  148.3  148.3
  11   160.0  158.2  155.9  153.8  152.0  150.1  148.4  148.3  148.3  148.3
  12   160.0  158.2  155.9  153.9  152.1  150.3  149.1  148.5  148.0  147.5
  13   160.0  158.2  155.9  154.0  152.2  150.5  149.4  148.6  147.9  147.2
  14   160.0  158.3  156.1  154.2  152.4  150.8  149.6  148.8  148.1  147.3
  15   160.0  158.4  156.3  154.5  152.8  151.1  150.0  149.2  148.4  147.6
  16   160.0  158.6  156.7  155.1  153.4  151.9  150.7  149.9  149.1  148.4
  17   160.0  158.9  157.3  155.8  154.2  152.7  151.5  150.8  150.0  149.2
1
              HEAD IN LAYER   5 AT END OF TIME STEP 100 IN STRESS PERIOD    1
  ---------------------------------------------------------------------------

         11     12     13     14     15     16     17
 ....................................................
   1   148.5  147.3  145.8  144.2  142.7  141.1  140.0
   2   147.6  146.4  144.9  143.4  141.9  140.6  140.0
   3   146.9  145.7  144.2  142.7  141.4  140.3  140.0
   4   146.5  145.4  143.8  142.4  141.1  140.2  140.0
   5   146.5  145.3  143.7  142.3  141.0  140.1  140.0
   6   146.8  145.5  143.8  142.2  141.0  140.1  140.0
   7   148.2  145.9  143.9  142.3  141.0  140.1  140.0
   8   148.2  146.0  143.9  142.3  141.0  140.1  140.0
   9   148.2  146.0  143.9  142.3  141.0  140.1  140.0
  10   148.2  146.0  143.9  142.3  141.0  140.1  140.0
  11   148.2  145.9  143.9  142.3  141.0  140.1  140.0
  12   146.8  145.5  143.8  142.2  141.0  140.1  140.0
  13   146.5  145.3  143.7  142.3  141.0  140.1  140.0
  14   146.5  145.4  143.8  142.4  141.1  140.2  140.0
  15   146.9  145.7  144.2  142.7  141.4  140.3  140.0
  16   147.6  146.4  144.9  143.4  141.9  140.6  140.0
  17   148.5  147.3  145.8  144.2  142.7  141.1  140.0
1
  VOLUMETRIC BUDGET FOR ENTIRE MODEL AT END OF TIME STEP100 IN STRESS PERIOD   1
  ------------------------------------------------------------------------------

     CUMULATIVE VOLUMES      L**3       RATES FOR THIS TIME STEP      L**3/T
     ------------------                 ------------------------

           IN:                                      IN:
           ---                                      ---
             STORAGE =       32214.4082               STORAGE =       7.1824E-02
       CONSTANT HEAD =  1290747776.0000         CONSTANT HEAD =      166887.4531
                  ET =           0.0000                    ET =           0.0000
            RECHARGE =  8700000256.0000              RECHARGE =     1740000.0000
     SPECIFIED FLOWS =           0.0000       SPECIFIED FLOWS =           0.0000
       LAKE  SEEPAGE =    78819544.0000         LAKE  SEEPAGE =       24948.1719

            TOTAL IN = 10069600256.0000              TOTAL IN =     1931835.7500

          OUT:                                     OUT:
          ----                                     ----
             STORAGE =  1011700608.0000               STORAGE =          20.0365
       CONSTANT HEAD =    38427116.0000         CONSTANT HEAD =        9489.0342
                  ET =  8741792768.0000                    ET =     1905422.1250
            RECHARGE =           0.0000              RECHARGE =           0.0000
     SPECIFIED FLOWS =           0.0000       SPECIFIED FLOWS =           0.0000
       LAKE  SEEPAGE =   277586784.0000         LAKE  SEEPAGE =       16892.4570

           TOTAL OUT = 10069507072.0000             TOTAL OUT =     1931823.6250

            IN - OUT =       93184.0000              IN - OUT =          12.1250

 PERCENT DISCREPANCY =           0.00     PERCENT DISCREPANCY =           0.00






          TIME SUMMARY AT END OF TIME STEP 100 IN STRESS PERIOD    1
                    SECONDS     MINUTES      HOURS       DAYS        YEARS
                    -----------------------------------------------------------
   TIME STEP LENGTH 9.82704E+06 1.63784E+05  2729.7      113.74     0.31140    
 STRESS PERIOD TIME 4.32000E+08 7.20000E+06 1.20000E+05  5000.0      13.689    
         TOTAL TIME 4.32000E+08 7.20000E+06 1.20000E+05  5000.0      13.689    
1

 Run end date and time (yyyy/mm/dd hh:mm:ss): 2007/07/25 12:39:35
 Elapsed run time:  1.156 Seconds

