                                  MODFLOW-2005     
      U.S. GEOLOGICAL SURVEY MODULAR FINITE-DIFFERENCE GROUND-WATER FLOW MODEL
                             VERSION 1.3.00 8/1/2007

 LIST FILE: testsfr2.lst
                         UNIT   12

 OPENING testsfr2.dis
 FILE TYPE:DIS   UNIT   13   STATUS:OLD    
 FORMAT:FORMATTED              ACCESS:SEQUENTIAL          

 OPENING testsfr2.ghb
 FILE TYPE:GHB   UNIT   15   STATUS:OLD    
 FORMAT:FORMATTED              ACCESS:SEQUENTIAL          

 OPENING testsfr2.bs6
 FILE TYPE:BAS6   UNIT   41   STATUS:OLD    
 FORMAT:FORMATTED              ACCESS:SEQUENTIAL          

 OPENING testsfr2.lpf
 FILE TYPE:LPF   UNIT   42   STATUS:OLD    
 FORMAT:FORMATTED              ACCESS:SEQUENTIAL          

 OPENING testsfr2.pcg
 FILE TYPE:PCG   UNIT   43   STATUS:OLD    
 FORMAT:FORMATTED              ACCESS:SEQUENTIAL          

 OPENING testsfr2.oc
 FILE TYPE:OC   UNIT   44   STATUS:OLD    
 FORMAT:FORMATTED              ACCESS:SEQUENTIAL          

 OPENING testsfr2.sfr
 FILE TYPE:SFR   UNIT   45   STATUS:OLD    
 FORMAT:FORMATTED              ACCESS:SEQUENTIAL          

 OPENING testsfr2.gag
 FILE TYPE:GAGE   UNIT   46   STATUS:OLD    
 FORMAT:FORMATTED              ACCESS:SEQUENTIAL          

 OPENING testsfr2.gg1
 FILE TYPE:DATA   UNIT   83   STATUS:UNKNOWN
 FORMAT:FORMATTED              ACCESS:SEQUENTIAL          

 OPENING testsfr2.gg2
 FILE TYPE:DATA   UNIT   84   STATUS:UNKNOWN
 FORMAT:FORMATTED              ACCESS:SEQUENTIAL          

 OPENING testsfr2.gg3
 FILE TYPE:DATA   UNIT   85   STATUS:UNKNOWN
 FORMAT:FORMATTED              ACCESS:SEQUENTIAL          

 OPENING testsfr2.gg4
 FILE TYPE:DATA   UNIT   86   STATUS:UNKNOWN
 FORMAT:FORMATTED              ACCESS:SEQUENTIAL          

 OPENING testsfr2.gg5
 FILE TYPE:DATA   UNIT   87   STATUS:UNKNOWN
 FORMAT:FORMATTED              ACCESS:SEQUENTIAL          

 OPENING testsfr2.gg6
 FILE TYPE:DATA   UNIT   88   STATUS:UNKNOWN
 FORMAT:FORMATTED              ACCESS:SEQUENTIAL          

 OPENING testsfr2.gg7
 FILE TYPE:DATA   UNIT   89   STATUS:UNKNOWN
 FORMAT:FORMATTED              ACCESS:SEQUENTIAL          

 OPENING testsfr2.gg8
 FILE TYPE:DATA   UNIT   90   STATUS:UNKNOWN
 FORMAT:FORMATTED              ACCESS:SEQUENTIAL          

 BAS -- BASIC PACKAGE, VERSION 7, 5/2/2005 INPUT READ FROM UNIT   41

 DISCRETIZATION INPUT DATA READ FROM UNIT   13
 # Discretization file input for hypothetical test simulation
 # Units: seconds, meters
    1 LAYERS         7 ROWS       100 COLUMNS
   50 STRESS PERIOD(S) IN SIMULATION
 MODEL TIME UNIT IS SECONDS
 MODEL LENGTH UNIT IS METERS
  Confining bed flag for each layer:
   0

                     DELR =   200.000    



                               DELC
 READING ON UNIT   13 WITH FORMAT: (FREE)              
   90.000       90.000       90.000       60.000       90.000    
   90.000       90.000    



           TOP ELEVATION OF LAYER 1
 READING ON UNIT   13 WITH FORMAT: (FREE)              

           1          2          3          4          5          6          7          8          9         10         11
          12         13         14         15         16         17         18         19         20         21         22
          23         24         25         26         27         28         29         30         31         32         33
          34         35         36         37         38         39         40         41         42         43         44
          45         46         47         48         49         50         51         52         53         54         55
          56         57         58         59         60         61         62         63         64         65         66
          67         68         69         70         71         72         73         74         75         76         77
          78         79         80         81         82         83         84         85         86         87         88
          89         90         91         92         93         94         95         96         97         98         99
         100
 .........................................................................................................................
   1    125.       124.       124.       124.       124.       123.       123.       123.       123.       122.       122.    
        122.       122.       121.       121.       121.       121.       120.       120.       120.       120.       119.    
        119.       119.       119.       118.       118.       118.       118.       117.       117.       117.       117.    
        116.       116.       116.       116.       115.       115.       115.       115.       114.       114.       114.    
        114.       113.       113.       113.       113.       112.       112.       112.       112.       111.       111.    
        111.       111.       110.       110.       110.       110.       109.       109.       109.       109.       108.    
        108.       108.       108.       107.       107.       107.       107.       106.       106.       106.       106.    
        105.       105.       105.       105.       104.       104.       104.       104.       103.       103.       103.    
        103.       102.       102.       102.       102.       101.       101.       101.       101.       100.       100.    
        100.    
   2    125.       124.       124.       124.       124.       123.       123.       123.       123.       122.       122.    
        122.       122.       121.       121.       121.       121.       120.       120.       120.       120.       119.    
        119.       119.       119.       118.       118.       118.       118.       117.       117.       117.       117.    
        116.       116.       116.       116.       115.       115.       115.       115.       114.       114.       114.    
        114.       113.       113.       113.       113.       112.       112.       112.       112.       111.       111.    
        111.       111.       110.       110.       110.       110.       109.       109.       109.       109.       108.    
        108.       108.       108.       107.       107.       107.       107.       106.       106.       106.       106.    
        105.       105.       105.       105.       104.       104.       104.       104.       103.       103.       103.    
        103.       102.       102.       102.       102.       101.       101.       101.       101.       100.       100.    
        100.    
   3    125.       124.       124.       124.       124.       123.       123.       123.       123.       122.       122.    
        122.       122.       121.       121.       121.       121.       120.       120.       120.       120.       119.    
        119.       119.       119.       118.       118.       118.       118.       117.       117.       117.       117.    
        116.       116.       116.       116.       115.       115.       115.       115.       114.       114.       114.    
        114.       113.       113.       113.       113.       112.       112.       112.       112.       111.       111.    
        111.       111.       110.       110.       110.       110.       109.       109.       109.       109.       108.    
        108.       108.       108.       107.       107.       107.       107.       106.       106.       106.       106.    
        105.       105.       105.       105.       104.       104.       104.       104.       103.       103.       103.    
        103.       102.       102.       102.       102.       101.       101.       101.       101.       100.       100.    
        100.    
   4    125.       124.       124.       124.       124.       123.       123.       123.       123.       122.       122.    
        122.       122.       121.       121.       121.       121.       120.       120.       120.       120.       119.    
        119.       119.       119.       118.       118.       118.       118.       117.       117.       117.       117.    
        116.       116.       116.       116.       115.       115.       115.       115.       114.       114.       114.    
        114.       113.       113.       113.       113.       112.       112.       112.       112.       111.       111.    
        111.       111.       110.       110.       110.       110.       109.       109.       109.       109.       108.    
        108.       108.       108.       107.       107.       107.       107.       106.       106.       106.       106.    
        105.       105.       105.       105.       104.       104.       104.       104.       103.       103.       103.    
        103.       102.       102.       102.       102.       101.       101.       101.       101.       100.       100.    
        100.    
   5    125.       124.       124.       124.       124.       123.       123.       123.       123.       122.       122.    
        122.       122.       121.       121.       121.       121.       120.       120.       120.       120.       119.    
        119.       119.       119.       118.       118.       118.       118.       117.       117.       117.       117.    
        116.       116.       116.       116.       115.       115.       115.       115.       114.       114.       114.    
        114.       113.       113.       113.       113.       112.       112.       112.       112.       111.       111.    
        111.       111.       110.       110.       110.       110.       109.       109.       109.       109.       108.    
        108.       108.       108.       107.       107.       107.       107.       106.       106.       106.       106.    
        105.       105.       105.       105.       104.       104.       104.       104.       103.       103.       103.    
        103.       102.       102.       102.       102.       101.       101.       101.       101.       100.       100.    
        100.    
   6    125.       124.       124.       124.       124.       123.       123.       123.       123.       122.       122.    
        122.       122.       121.       121.       121.       121.       120.       120.       120.       120.       119.    
        119.       119.       119.       118.       118.       118.       118.       117.       117.       117.       117.    
        116.       116.       116.       116.       115.       115.       115.       115.       114.       114.       114.    
        114.       113.       113.       113.       113.       112.       112.       112.       112.       111.       111.    
        111.       111.       110.       110.       110.       110.       109.       109.       109.       109.       108.    
        108.       108.       108.       107.       107.       107.       107.       106.       106.       106.       106.    
        105.       105.       105.       105.       104.       104.       104.       104.       103.       103.       103.    
        103.       102.       102.       102.       102.       101.       101.       101.       101.       100.       100.    
        100.    
   7    125.       124.       124.       124.       124.       123.       123.       123.       123.       122.       122.    
        122.       122.       121.       121.       121.       121.       120.       120.       120.       120.       119.    
        119.       119.       119.       118.       118.       118.       118.       117.       117.       117.       117.    
        116.       116.       116.       116.       115.       115.       115.       115.       114.       114.       114.    
        114.       113.       113.       113.       113.       112.       112.       112.       112.       111.       111.    
        111.       111.       110.       110.       110.       110.       109.       109.       109.       109.       108.    
        108.       108.       108.       107.       107.       107.       107.       106.       106.       106.       106.    
        105.       105.       105.       105.       104.       104.       104.       104.       103.       103.       103.    
        103.       102.       102.       102.       102.       101.       101.       101.       101.       100.       100.    
        100.    

   MODEL LAYER BOTTOM EL. =   0.00000     FOR LAYER   1


 STRESS PERIOD     LENGTH       TIME STEPS     MULTIPLIER FOR DELT    SS FLAG
 ----------------------------------------------------------------------------
        1         2592000.         30                    1.100         TR
        2         2592000.         30                    1.100         TR
        3         2592000.         30                    1.100         TR
        4         2592000.         30                    1.100         TR
        5         2592000.         30                    1.100         TR
        6         2592000.         30                    1.100         TR
        7         2592000.         30                    1.100         TR
        8         2592000.         30                    1.100         TR
        9         2592000.         30                    1.100         TR
       10         2592000.         30                    1.100         TR
       11         2592000.         30                    1.100         TR
       12         2592000.         30                    1.100         TR
       13         2592000.         30                    1.100         TR
       14         2592000.         30                    1.100         TR
       15         2592000.         30                    1.100         TR
       16         2592000.         30                    1.100         TR
       17         2592000.         30                    1.100         TR
       18         2592000.         30                    1.100         TR
       19         2592000.         30                    1.100         TR
       20         2592000.         30                    1.100         TR
       21         2592000.         30                    1.100         TR
       22         2592000.         30                    1.100         TR
       23         2592000.         30                    1.100         TR
       24         2592000.         30                    1.100         TR
       25         2592000.         30                    1.100         TR
       26         2592000.         30                    1.100         TR
       27         2592000.         30                    1.100         TR
       28         2592000.         30                    1.100         TR
       29         2592000.         30                    1.100         TR
       30         2592000.         30                    1.100         TR
       31         2592000.         30                    1.100         TR
       32         2592000.         30                    1.100         TR
       33         2592000.         30                    1.100         TR
       34         2592000.         30                    1.100         TR
       35         2592000.         30                    1.100         TR
       36         2592000.         30                    1.100         TR
       37         2592000.         30                    1.100         TR
       38         2592000.         30                    1.100         TR
       39         2592000.         30                    1.100         TR
       40         2592000.         30                    1.100         TR
       41         2592000.         30                    1.100         TR
       42         2592000.         30                    1.100         TR
       43         2592000.         30                    1.100         TR
       44         2592000.         30                    1.100         TR
       45         2592000.         30                    1.100         TR
       46         2592000.         30                    1.100         TR
       47         2592000.         30                    1.100         TR
       48         2592000.         30                    1.100         TR
       49         2592000.         30                    1.100         TR
       50         2592000.         30                    1.100         TR

 TRANSIENT SIMULATION



 
 # BAS6 Package input file for hypothetical test simulation                      
 # Test of SFR2 Package                                                          
 THE FREE FORMAT OPTION HAS BEEN SELECTED



                     BOUNDARY ARRAY FOR LAYER   1
 READING ON UNIT   41 WITH FORMAT: (30I2)              

      1 2 3 4 5 6 7 8 9101112131415161718192021222324252627282930313233343536373839404142434445464748495051525354555657585960
     61626364656667686970717273747576777879808182838485868788899091929394959697989100
 ............................................................................................................................
   1  1 1 1 1 1 1 1 1 1 1 1 1 1 1 1 1 1 1 1 1 1 1 1 1 1 1 1 1 1 1 1 1 1 1 1 1 1 1 1 1 1 1 1 1 1 1 1 1 1 1 1 1 1 1 1 1 1 1 1 1
      1 1 1 1 1 1 1 1 1 1 1 1 1 1 1 1 1 1 1 1 1 1 1 1 1 1 1 1 1 1 1 1 1 1 1 1 1 1 1 1
   2  1 1 1 1 1 1 1 1 1 1 1 1 1 1 1 1 1 1 1 1 1 1 1 1 1 1 1 1 1 1 1 1 1 1 1 1 1 1 1 1 1 1 1 1 1 1 1 1 1 1 1 1 1 1 1 1 1 1 1 1
      1 1 1 1 1 1 1 1 1 1 1 1 1 1 1 1 1 1 1 1 1 1 1 1 1 1 1 1 1 1 1 1 1 1 1 1 1 1 1 1
   3  1 1 1 1 1 1 1 1 1 1 1 1 1 1 1 1 1 1 1 1 1 1 1 1 1 1 1 1 1 1 1 1 1 1 1 1 1 1 1 1 1 1 1 1 1 1 1 1 1 1 1 1 1 1 1 1 1 1 1 1
      1 1 1 1 1 1 1 1 1 1 1 1 1 1 1 1 1 1 1 1 1 1 1 1 1 1 1 1 1 1 1 1 1 1 1 1 1 1 1 1
   4  1 1 1 1 1 1 1 1 1 1 1 1 1 1 1 1 1 1 1 1 1 1 1 1 1 1 1 1 1 1 1 1 1 1 1 1 1 1 1 1 1 1 1 1 1 1 1 1 1 1 1 1 1 1 1 1 1 1 1 1
      1 1 1 1 1 1 1 1 1 1 1 1 1 1 1 1 1 1 1 1 1 1 1 1 1 1 1 1 1 1 1 1 1 1 1 1 1 1 1 1
   5  1 1 1 1 1 1 1 1 1 1 1 1 1 1 1 1 1 1 1 1 1 1 1 1 1 1 1 1 1 1 1 1 1 1 1 1 1 1 1 1 1 1 1 1 1 1 1 1 1 1 1 1 1 1 1 1 1 1 1 1
      1 1 1 1 1 1 1 1 1 1 1 1 1 1 1 1 1 1 1 1 1 1 1 1 1 1 1 1 1 1 1 1 1 1 1 1 1 1 1 1
   6  1 1 1 1 1 1 1 1 1 1 1 1 1 1 1 1 1 1 1 1 1 1 1 1 1 1 1 1 1 1 1 1 1 1 1 1 1 1 1 1 1 1 1 1 1 1 1 1 1 1 1 1 1 1 1 1 1 1 1 1
      1 1 1 1 1 1 1 1 1 1 1 1 1 1 1 1 1 1 1 1 1 1 1 1 1 1 1 1 1 1 1 1 1 1 1 1 1 1 1 1
   7  1 1 1 1 1 1 1 1 1 1 1 1 1 1 1 1 1 1 1 1 1 1 1 1 1 1 1 1 1 1 1 1 1 1 1 1 1 1 1 1 1 1 1 1 1 1 1 1 1 1 1 1 1 1 1 1 1 1 1 1
      1 1 1 1 1 1 1 1 1 1 1 1 1 1 1 1 1 1 1 1 1 1 1 1 1 1 1 1 1 1 1 1 1 1 1 1 1 1 1 1

 AQUIFER HEAD WILL BE SET TO -6999.0     AT ALL NO-FLOW NODES (IBOUND=0).

             INITIAL HEAD =   104.000     FOR LAYER   1
 # OC input file for hypothetical test simulation
 # Test of SFR2 Package

 OUTPUT CONTROL IS SPECIFIED ONLY AT TIME STEPS FOR WHICH OUTPUT IS DESIRED
 COMPACT CELL-BY-CELL BUDGET FILES WILL BE WRITTEN
 HEAD PRINT FORMAT CODE IS  14    DRAWDOWN PRINT FORMAT CODE IS   0
 HEADS WILL BE SAVED ON UNIT    0    DRAWDOWNS WILL BE SAVED ON UNIT    0

 LPF -- LAYER-PROPERTY FLOW PACKAGE, VERSION 7, 5/2/2005
         INPUT READ FROM UNIT   42
 # LPF Package input file for hypothetical test simulation
 # Test of SFR2 Package
 HEAD AT CELLS THAT CONVERT TO DRY=  -999.00    
 No named parameters

   LAYER FLAGS:
 LAYER       LAYTYP        LAYAVG         CHANI        LAYVKA        LAYWET
 ---------------------------------------------------------------------------
    1             1             0     1.000E+00             0             0

   INTERPRETATION OF LAYER FLAGS:
                        INTERBLOCK     HORIZONTAL    DATA IN
         LAYER TYPE   TRANSMISSIVITY   ANISOTROPY   ARRAY VKA   WETTABILITY
 LAYER      (LAYTYP)      (LAYAVG)       (CHANI)      (LAYVKA)      (LAYWET)
 ---------------------------------------------------------------------------
    1   CONVERTIBLE      HARMONIC     1.000E+00    VERTICAL K  NON-WETTABLE

 WETTING CAPABILITY IS NOT ACTIVE IN ANY LAYER

    HYD. COND. ALONG ROWS =  8.000000E-04 FOR LAYER   1

      VERTICAL HYD. COND. =  6.000000E-06 FOR LAYER   1

         SPECIFIC STORAGE =   0.00000     FOR LAYER   1

           SPECIFIC YIELD =  0.200000     FOR LAYER   1

 GHB -- GENERAL-HEAD BOUNDARY PACKAGE, VERSION 7, 5/2/2005
         INPUT READ FROM UNIT   15
 # GHB Package input file for hypothetical test simulation
 # Test of SFR2 Package
 No named parameters
 MAXIMUM OF      7 ACTIVE GHB CELLS AT ONE TIME
 CELL-BY-CELL FLOWS WILL BE PRINTED WHEN ICBCFL NOT 0


     0 GHB parameters

 SFR7 -- STREAMFLOW ROUTING PACKAGE, VERSION 7.1, 06/29/2006
         INPUT READ FROM UNIT  45
 # SFR2 Package input file for hypothetical test simulation
 # Test of SFR2 Package; revised May 20, 2006


 NUMBER OF STREAM REACHES IS  100

 NUMBER OF STREAM SEGMENTS IS    1

 NUMBER OF STREAM PARAMETERS IS    0

 NUMBER OF STREAM SEGMENTS DEFINED USING PARAMETERS IS    0

 MAXIMUM ERROR FOR STREAM LEAKAGE RATES IS  1.00E-05

 CONSTANT FOR MANNINGS EQUATION IS  1.0000E+00





 OPTION FOR UNSATURATED FLOW BENEATH STREAMBEDS IS ACTIVE 




   STREAM NETWORK DESCRIPTION: 

   LAYER    ROW    COL   SEGMENT   REACH     LENGTH
                          NUMBER   NUMBER    IN CELL
   --------------------------------------------------
      1      4      1       1        1    2.0000E+02
      1      4      2       1        2    2.0000E+02
      1      4      3       1        3    2.0000E+02
      1      4      4       1        4    2.0000E+02
      1      4      5       1        5    2.0000E+02
      1      4      6       1        6    2.0000E+02
      1      4      7       1        7    2.0000E+02
      1      4      8       1        8    2.0000E+02
      1      4      9       1        9    2.0000E+02
      1      4     10       1       10    2.0000E+02
      1      4     11       1       11    2.0000E+02
      1      4     12       1       12    2.0000E+02
      1      4     13       1       13    2.0000E+02
      1      4     14       1       14    2.0000E+02
      1      4     15       1       15    2.0000E+02
      1      4     16       1       16    2.0000E+02
      1      4     17       1       17    2.0000E+02
      1      4     18       1       18    2.0000E+02
      1      4     19       1       19    2.0000E+02
      1      4     20       1       20    2.0000E+02
      1      4     21       1       21    2.0000E+02
      1      4     22       1       22    2.0000E+02
      1      4     23       1       23    2.0000E+02
      1      4     24       1       24    2.0000E+02
      1      4     25       1       25    2.0000E+02
      1      4     26       1       26    2.0000E+02
      1      4     27       1       27    2.0000E+02
      1      4     28       1       28    2.0000E+02
      1      4     29       1       29    2.0000E+02
      1      4     30       1       30    2.0000E+02
      1      4     31       1       31    2.0000E+02
      1      4     32       1       32    2.0000E+02
      1      4     33       1       33    2.0000E+02
      1      4     34       1       34    2.0000E+02
      1      4     35       1       35    2.0000E+02
      1      4     36       1       36    2.0000E+02
      1      4     37       1       37    2.0000E+02
      1      4     38       1       38    2.0000E+02
      1      4     39       1       39    2.0000E+02
      1      4     40       1       40    2.0000E+02
      1      4     41       1       41    2.0000E+02
      1      4     42       1       42    2.0000E+02
      1      4     43       1       43    2.0000E+02
      1      4     44       1       44    2.0000E+02
      1      4     45       1       45    2.0000E+02
      1      4     46       1       46    2.0000E+02
      1      4     47       1       47    2.0000E+02
      1      4     48       1       48    2.0000E+02
      1      4     49       1       49    2.0000E+02
      1      4     50       1       50    2.0000E+02
      1      4     51       1       51    2.0000E+02
      1      4     52       1       52    2.0000E+02
      1      4     53       1       53    2.0000E+02
      1      4     54       1       54    2.0000E+02
      1      4     55       1       55    2.0000E+02
      1      4     56       1       56    2.0000E+02
      1      4     57       1       57    2.0000E+02
      1      4     58       1       58    2.0000E+02
      1      4     59       1       59    2.0000E+02
      1      4     60       1       60    2.0000E+02
      1      4     61       1       61    2.0000E+02
      1      4     62       1       62    2.0000E+02
      1      4     63       1       63    2.0000E+02
      1      4     64       1       64    2.0000E+02
      1      4     65       1       65    2.0000E+02
      1      4     66       1       66    2.0000E+02
      1      4     67       1       67    2.0000E+02
      1      4     68       1       68    2.0000E+02
      1      4     69       1       69    2.0000E+02
      1      4     70       1       70    2.0000E+02
      1      4     71       1       71    2.0000E+02
      1      4     72       1       72    2.0000E+02
      1      4     73       1       73    2.0000E+02
      1      4     74       1       74    2.0000E+02
      1      4     75       1       75    2.0000E+02
      1      4     76       1       76    2.0000E+02
      1      4     77       1       77    2.0000E+02
      1      4     78       1       78    2.0000E+02
      1      4     79       1       79    2.0000E+02
      1      4     80       1       80    2.0000E+02
      1      4     81       1       81    2.0000E+02
      1      4     82       1       82    2.0000E+02
      1      4     83       1       83    2.0000E+02
      1      4     84       1       84    2.0000E+02
      1      4     85       1       85    2.0000E+02
      1      4     86       1       86    2.0000E+02
      1      4     87       1       87    2.0000E+02
      1      4     88       1       88    2.0000E+02
      1      4     89       1       89    2.0000E+02
      1      4     90       1       90    2.0000E+02
      1      4     91       1       91    2.0000E+02
      1      4     92       1       92    2.0000E+02
      1      4     93       1       93    2.0000E+02
      1      4     94       1       94    2.0000E+02
      1      4     95       1       95    2.0000E+02
      1      4     96       1       96    2.0000E+02
      1      4     97       1       97    2.0000E+02
      1      4     98       1       98    2.0000E+02
      1      4     99       1       99    2.0000E+02
      1      4    100       1      100    2.0000E+02
 INITIAL WATER CONTENT IS LESS THAN RESIDUAL WATER CONTENT FOR STREAM SEGMENT:     1 REACH:     1 INITIAL WATER CONTENT RESET TO RESIDUAL OF  0.10000E+00
 INITIAL WATER CONTENT IS LESS THAN RESIDUAL WATER CONTENT FOR STREAM SEGMENT:     1 REACH:     2 INITIAL WATER CONTENT RESET TO RESIDUAL OF  0.10000E+00
 INITIAL WATER CONTENT IS LESS THAN RESIDUAL WATER CONTENT FOR STREAM SEGMENT:     1 REACH:     3 INITIAL WATER CONTENT RESET TO RESIDUAL OF  0.10000E+00
 INITIAL WATER CONTENT IS LESS THAN RESIDUAL WATER CONTENT FOR STREAM SEGMENT:     1 REACH:     4 INITIAL WATER CONTENT RESET TO RESIDUAL OF  0.10000E+00
 INITIAL WATER CONTENT IS LESS THAN RESIDUAL WATER CONTENT FOR STREAM SEGMENT:     1 REACH:     5 INITIAL WATER CONTENT RESET TO RESIDUAL OF  0.10000E+00
 INITIAL WATER CONTENT IS LESS THAN RESIDUAL WATER CONTENT FOR STREAM SEGMENT:     1 REACH:     6 INITIAL WATER CONTENT RESET TO RESIDUAL OF  0.10000E+00
 INITIAL WATER CONTENT IS LESS THAN RESIDUAL WATER CONTENT FOR STREAM SEGMENT:     1 REACH:     7 INITIAL WATER CONTENT RESET TO RESIDUAL OF  0.10000E+00
 INITIAL WATER CONTENT IS LESS THAN RESIDUAL WATER CONTENT FOR STREAM SEGMENT:     1 REACH:     8 INITIAL WATER CONTENT RESET TO RESIDUAL OF  0.10000E+00
 INITIAL WATER CONTENT IS LESS THAN RESIDUAL WATER CONTENT FOR STREAM SEGMENT:     1 REACH:     9 INITIAL WATER CONTENT RESET TO RESIDUAL OF  0.10000E+00
 INITIAL WATER CONTENT IS LESS THAN RESIDUAL WATER CONTENT FOR STREAM SEGMENT:     1 REACH:    10 INITIAL WATER CONTENT RESET TO RESIDUAL OF  0.10000E+00
 INITIAL WATER CONTENT IS LESS THAN RESIDUAL WATER CONTENT FOR STREAM SEGMENT:     1 REACH:    11 INITIAL WATER CONTENT RESET TO RESIDUAL OF  0.10000E+00
 INITIAL WATER CONTENT IS LESS THAN RESIDUAL WATER CONTENT FOR STREAM SEGMENT:     1 REACH:    12 INITIAL WATER CONTENT RESET TO RESIDUAL OF  0.10000E+00
 INITIAL WATER CONTENT IS LESS THAN RESIDUAL WATER CONTENT FOR STREAM SEGMENT:     1 REACH:    13 INITIAL WATER CONTENT RESET TO RESIDUAL OF  0.10000E+00
 INITIAL WATER CONTENT IS LESS THAN RESIDUAL WATER CONTENT FOR STREAM SEGMENT:     1 REACH:    14 INITIAL WATER CONTENT RESET TO RESIDUAL OF  0.10000E+00
 INITIAL WATER CONTENT IS LESS THAN RESIDUAL WATER CONTENT FOR STREAM SEGMENT:     1 REACH:    15 INITIAL WATER CONTENT RESET TO RESIDUAL OF  0.10000E+00
 INITIAL WATER CONTENT IS LESS THAN RESIDUAL WATER CONTENT FOR STREAM SEGMENT:     1 REACH:    16 INITIAL WATER CONTENT RESET TO RESIDUAL OF  0.10000E+00
 INITIAL WATER CONTENT IS LESS THAN RESIDUAL WATER CONTENT FOR STREAM SEGMENT:     1 REACH:    17 INITIAL WATER CONTENT RESET TO RESIDUAL OF  0.10000E+00
 INITIAL WATER CONTENT IS LESS THAN RESIDUAL WATER CONTENT FOR STREAM SEGMENT:     1 REACH:    18 INITIAL WATER CONTENT RESET TO RESIDUAL OF  0.10000E+00
 INITIAL WATER CONTENT IS LESS THAN RESIDUAL WATER CONTENT FOR STREAM SEGMENT:     1 REACH:    19 INITIAL WATER CONTENT RESET TO RESIDUAL OF  0.10000E+00
 INITIAL WATER CONTENT IS LESS THAN RESIDUAL WATER CONTENT FOR STREAM SEGMENT:     1 REACH:    20 INITIAL WATER CONTENT RESET TO RESIDUAL OF  0.10000E+00
 INITIAL WATER CONTENT IS LESS THAN RESIDUAL WATER CONTENT FOR STREAM SEGMENT:     1 REACH:    21 INITIAL WATER CONTENT RESET TO RESIDUAL OF  0.10000E+00
 INITIAL WATER CONTENT IS LESS THAN RESIDUAL WATER CONTENT FOR STREAM SEGMENT:     1 REACH:    22 INITIAL WATER CONTENT RESET TO RESIDUAL OF  0.10000E+00
 INITIAL WATER CONTENT IS LESS THAN RESIDUAL WATER CONTENT FOR STREAM SEGMENT:     1 REACH:    23 INITIAL WATER CONTENT RESET TO RESIDUAL OF  0.10000E+00
 INITIAL WATER CONTENT IS LESS THAN RESIDUAL WATER CONTENT FOR STREAM SEGMENT:     1 REACH:    24 INITIAL WATER CONTENT RESET TO RESIDUAL OF  0.10000E+00
 INITIAL WATER CONTENT IS LESS THAN RESIDUAL WATER CONTENT FOR STREAM SEGMENT:     1 REACH:    25 INITIAL WATER CONTENT RESET TO RESIDUAL OF  0.10000E+00
 INITIAL WATER CONTENT IS LESS THAN RESIDUAL WATER CONTENT FOR STREAM SEGMENT:     1 REACH:    26 INITIAL WATER CONTENT RESET TO RESIDUAL OF  0.10000E+00
 INITIAL WATER CONTENT IS LESS THAN RESIDUAL WATER CONTENT FOR STREAM SEGMENT:     1 REACH:    27 INITIAL WATER CONTENT RESET TO RESIDUAL OF  0.10000E+00
 INITIAL WATER CONTENT IS LESS THAN RESIDUAL WATER CONTENT FOR STREAM SEGMENT:     1 REACH:    28 INITIAL WATER CONTENT RESET TO RESIDUAL OF  0.10000E+00
 INITIAL WATER CONTENT IS LESS THAN RESIDUAL WATER CONTENT FOR STREAM SEGMENT:     1 REACH:    29 INITIAL WATER CONTENT RESET TO RESIDUAL OF  0.10000E+00
 INITIAL WATER CONTENT IS LESS THAN RESIDUAL WATER CONTENT FOR STREAM SEGMENT:     1 REACH:    30 INITIAL WATER CONTENT RESET TO RESIDUAL OF  0.10000E+00
 INITIAL WATER CONTENT IS LESS THAN RESIDUAL WATER CONTENT FOR STREAM SEGMENT:     1 REACH:    31 INITIAL WATER CONTENT RESET TO RESIDUAL OF  0.10000E+00
 INITIAL WATER CONTENT IS LESS THAN RESIDUAL WATER CONTENT FOR STREAM SEGMENT:     1 REACH:    32 INITIAL WATER CONTENT RESET TO RESIDUAL OF  0.10000E+00
 INITIAL WATER CONTENT IS LESS THAN RESIDUAL WATER CONTENT FOR STREAM SEGMENT:     1 REACH:    33 INITIAL WATER CONTENT RESET TO RESIDUAL OF  0.10000E+00
 INITIAL WATER CONTENT IS LESS THAN RESIDUAL WATER CONTENT FOR STREAM SEGMENT:     1 REACH:    34 INITIAL WATER CONTENT RESET TO RESIDUAL OF  0.10000E+00
 INITIAL WATER CONTENT IS LESS THAN RESIDUAL WATER CONTENT FOR STREAM SEGMENT:     1 REACH:    35 INITIAL WATER CONTENT RESET TO RESIDUAL OF  0.10000E+00
 INITIAL WATER CONTENT IS LESS THAN RESIDUAL WATER CONTENT FOR STREAM SEGMENT:     1 REACH:    36 INITIAL WATER CONTENT RESET TO RESIDUAL OF  0.10000E+00
 INITIAL WATER CONTENT IS LESS THAN RESIDUAL WATER CONTENT FOR STREAM SEGMENT:     1 REACH:    37 INITIAL WATER CONTENT RESET TO RESIDUAL OF  0.10000E+00
 INITIAL WATER CONTENT IS LESS THAN RESIDUAL WATER CONTENT FOR STREAM SEGMENT:     1 REACH:    38 INITIAL WATER CONTENT RESET TO RESIDUAL OF  0.10000E+00
 INITIAL WATER CONTENT IS LESS THAN RESIDUAL WATER CONTENT FOR STREAM SEGMENT:     1 REACH:    39 INITIAL WATER CONTENT RESET TO RESIDUAL OF  0.10000E+00
 INITIAL WATER CONTENT IS LESS THAN RESIDUAL WATER CONTENT FOR STREAM SEGMENT:     1 REACH:    40 INITIAL WATER CONTENT RESET TO RESIDUAL OF  0.10000E+00
 INITIAL WATER CONTENT IS LESS THAN RESIDUAL WATER CONTENT FOR STREAM SEGMENT:     1 REACH:    41 INITIAL WATER CONTENT RESET TO RESIDUAL OF  0.10000E+00
 INITIAL WATER CONTENT IS LESS THAN RESIDUAL WATER CONTENT FOR STREAM SEGMENT:     1 REACH:    42 INITIAL WATER CONTENT RESET TO RESIDUAL OF  0.10000E+00
 INITIAL WATER CONTENT IS LESS THAN RESIDUAL WATER CONTENT FOR STREAM SEGMENT:     1 REACH:    43 INITIAL WATER CONTENT RESET TO RESIDUAL OF  0.10000E+00
 INITIAL WATER CONTENT IS LESS THAN RESIDUAL WATER CONTENT FOR STREAM SEGMENT:     1 REACH:    44 INITIAL WATER CONTENT RESET TO RESIDUAL OF  0.10000E+00
 INITIAL WATER CONTENT IS LESS THAN RESIDUAL WATER CONTENT FOR STREAM SEGMENT:     1 REACH:    45 INITIAL WATER CONTENT RESET TO RESIDUAL OF  0.10000E+00
 INITIAL WATER CONTENT IS LESS THAN RESIDUAL WATER CONTENT FOR STREAM SEGMENT:     1 REACH:    46 INITIAL WATER CONTENT RESET TO RESIDUAL OF  0.10000E+00
 INITIAL WATER CONTENT IS LESS THAN RESIDUAL WATER CONTENT FOR STREAM SEGMENT:     1 REACH:    47 INITIAL WATER CONTENT RESET TO RESIDUAL OF  0.10000E+00
 INITIAL WATER CONTENT IS LESS THAN RESIDUAL WATER CONTENT FOR STREAM SEGMENT:     1 REACH:    48 INITIAL WATER CONTENT RESET TO RESIDUAL OF  0.10000E+00
 INITIAL WATER CONTENT IS LESS THAN RESIDUAL WATER CONTENT FOR STREAM SEGMENT:     1 REACH:    49 INITIAL WATER CONTENT RESET TO RESIDUAL OF  0.10000E+00
 INITIAL WATER CONTENT IS LESS THAN RESIDUAL WATER CONTENT FOR STREAM SEGMENT:     1 REACH:    50 INITIAL WATER CONTENT RESET TO RESIDUAL OF  0.10000E+00
 INITIAL WATER CONTENT IS LESS THAN RESIDUAL WATER CONTENT FOR STREAM SEGMENT:     1 REACH:    51 INITIAL WATER CONTENT RESET TO RESIDUAL OF  0.10000E+00
 INITIAL WATER CONTENT IS LESS THAN RESIDUAL WATER CONTENT FOR STREAM SEGMENT:     1 REACH:    52 INITIAL WATER CONTENT RESET TO RESIDUAL OF  0.10000E+00
 INITIAL WATER CONTENT IS LESS THAN RESIDUAL WATER CONTENT FOR STREAM SEGMENT:     1 REACH:    53 INITIAL WATER CONTENT RESET TO RESIDUAL OF  0.10000E+00
 INITIAL WATER CONTENT IS LESS THAN RESIDUAL WATER CONTENT FOR STREAM SEGMENT:     1 REACH:    54 INITIAL WATER CONTENT RESET TO RESIDUAL OF  0.10000E+00
 INITIAL WATER CONTENT IS LESS THAN RESIDUAL WATER CONTENT FOR STREAM SEGMENT:     1 REACH:    55 INITIAL WATER CONTENT RESET TO RESIDUAL OF  0.10000E+00
 INITIAL WATER CONTENT IS LESS THAN RESIDUAL WATER CONTENT FOR STREAM SEGMENT:     1 REACH:    56 INITIAL WATER CONTENT RESET TO RESIDUAL OF  0.10000E+00
 INITIAL WATER CONTENT IS LESS THAN RESIDUAL WATER CONTENT FOR STREAM SEGMENT:     1 REACH:    57 INITIAL WATER CONTENT RESET TO RESIDUAL OF  0.10000E+00
 INITIAL WATER CONTENT IS LESS THAN RESIDUAL WATER CONTENT FOR STREAM SEGMENT:     1 REACH:    58 INITIAL WATER CONTENT RESET TO RESIDUAL OF  0.10000E+00
 INITIAL WATER CONTENT IS LESS THAN RESIDUAL WATER CONTENT FOR STREAM SEGMENT:     1 REACH:    59 INITIAL WATER CONTENT RESET TO RESIDUAL OF  0.10000E+00
 INITIAL WATER CONTENT IS LESS THAN RESIDUAL WATER CONTENT FOR STREAM SEGMENT:     1 REACH:    60 INITIAL WATER CONTENT RESET TO RESIDUAL OF  0.10000E+00
 INITIAL WATER CONTENT IS LESS THAN RESIDUAL WATER CONTENT FOR STREAM SEGMENT:     1 REACH:    61 INITIAL WATER CONTENT RESET TO RESIDUAL OF  0.10000E+00
 INITIAL WATER CONTENT IS LESS THAN RESIDUAL WATER CONTENT FOR STREAM SEGMENT:     1 REACH:    62 INITIAL WATER CONTENT RESET TO RESIDUAL OF  0.10000E+00
 INITIAL WATER CONTENT IS LESS THAN RESIDUAL WATER CONTENT FOR STREAM SEGMENT:     1 REACH:    63 INITIAL WATER CONTENT RESET TO RESIDUAL OF  0.10000E+00
 INITIAL WATER CONTENT IS LESS THAN RESIDUAL WATER CONTENT FOR STREAM SEGMENT:     1 REACH:    64 INITIAL WATER CONTENT RESET TO RESIDUAL OF  0.10000E+00
 INITIAL WATER CONTENT IS LESS THAN RESIDUAL WATER CONTENT FOR STREAM SEGMENT:     1 REACH:    65 INITIAL WATER CONTENT RESET TO RESIDUAL OF  0.10000E+00
 INITIAL WATER CONTENT IS LESS THAN RESIDUAL WATER CONTENT FOR STREAM SEGMENT:     1 REACH:    66 INITIAL WATER CONTENT RESET TO RESIDUAL OF  0.10000E+00
 INITIAL WATER CONTENT IS LESS THAN RESIDUAL WATER CONTENT FOR STREAM SEGMENT:     1 REACH:    67 INITIAL WATER CONTENT RESET TO RESIDUAL OF  0.10000E+00
 INITIAL WATER CONTENT IS LESS THAN RESIDUAL WATER CONTENT FOR STREAM SEGMENT:     1 REACH:    68 INITIAL WATER CONTENT RESET TO RESIDUAL OF  0.10000E+00
 INITIAL WATER CONTENT IS LESS THAN RESIDUAL WATER CONTENT FOR STREAM SEGMENT:     1 REACH:    69 INITIAL WATER CONTENT RESET TO RESIDUAL OF  0.10000E+00
 INITIAL WATER CONTENT IS LESS THAN RESIDUAL WATER CONTENT FOR STREAM SEGMENT:     1 REACH:    70 INITIAL WATER CONTENT RESET TO RESIDUAL OF  0.10000E+00
 INITIAL WATER CONTENT IS LESS THAN RESIDUAL WATER CONTENT FOR STREAM SEGMENT:     1 REACH:    71 INITIAL WATER CONTENT RESET TO RESIDUAL OF  0.10000E+00
 INITIAL WATER CONTENT IS LESS THAN RESIDUAL WATER CONTENT FOR STREAM SEGMENT:     1 REACH:    72 INITIAL WATER CONTENT RESET TO RESIDUAL OF  0.10000E+00
 INITIAL WATER CONTENT IS LESS THAN RESIDUAL WATER CONTENT FOR STREAM SEGMENT:     1 REACH:    73 INITIAL WATER CONTENT RESET TO RESIDUAL OF  0.10000E+00
 INITIAL WATER CONTENT IS LESS THAN RESIDUAL WATER CONTENT FOR STREAM SEGMENT:     1 REACH:    74 INITIAL WATER CONTENT RESET TO RESIDUAL OF  0.10000E+00
 INITIAL WATER CONTENT IS LESS THAN RESIDUAL WATER CONTENT FOR STREAM SEGMENT:     1 REACH:    75 INITIAL WATER CONTENT RESET TO RESIDUAL OF  0.10000E+00
 INITIAL WATER CONTENT IS LESS THAN RESIDUAL WATER CONTENT FOR STREAM SEGMENT:     1 REACH:    76 INITIAL WATER CONTENT RESET TO RESIDUAL OF  0.10000E+00
 INITIAL WATER CONTENT IS LESS THAN RESIDUAL WATER CONTENT FOR STREAM SEGMENT:     1 REACH:    77 INITIAL WATER CONTENT RESET TO RESIDUAL OF  0.10000E+00
 INITIAL WATER CONTENT IS LESS THAN RESIDUAL WATER CONTENT FOR STREAM SEGMENT:     1 REACH:    78 INITIAL WATER CONTENT RESET TO RESIDUAL OF  0.10000E+00
 INITIAL WATER CONTENT IS LESS THAN RESIDUAL WATER CONTENT FOR STREAM SEGMENT:     1 REACH:    79 INITIAL WATER CONTENT RESET TO RESIDUAL OF  0.10000E+00
 INITIAL WATER CONTENT IS LESS THAN RESIDUAL WATER CONTENT FOR STREAM SEGMENT:     1 REACH:    80 INITIAL WATER CONTENT RESET TO RESIDUAL OF  0.10000E+00
 INITIAL WATER CONTENT IS LESS THAN RESIDUAL WATER CONTENT FOR STREAM SEGMENT:     1 REACH:    81 INITIAL WATER CONTENT RESET TO RESIDUAL OF  0.10000E+00
 INITIAL WATER CONTENT IS LESS THAN RESIDUAL WATER CONTENT FOR STREAM SEGMENT:     1 REACH:    82 INITIAL WATER CONTENT RESET TO RESIDUAL OF  0.10000E+00
 INITIAL WATER CONTENT IS LESS THAN RESIDUAL WATER CONTENT FOR STREAM SEGMENT:     1 REACH:    83 INITIAL WATER CONTENT RESET TO RESIDUAL OF  0.10000E+00
 INITIAL WATER CONTENT IS LESS THAN RESIDUAL WATER CONTENT FOR STREAM SEGMENT:     1 REACH:    84 INITIAL WATER CONTENT RESET TO RESIDUAL OF  0.10000E+00
 INITIAL WATER CONTENT IS LESS THAN RESIDUAL WATER CONTENT FOR STREAM SEGMENT:     1 REACH:    85 INITIAL WATER CONTENT RESET TO RESIDUAL OF  0.10000E+00
 INITIAL WATER CONTENT IS LESS THAN RESIDUAL WATER CONTENT FOR STREAM SEGMENT:     1 REACH:    86 INITIAL WATER CONTENT RESET TO RESIDUAL OF  0.10000E+00
 INITIAL WATER CONTENT IS LESS THAN RESIDUAL WATER CONTENT FOR STREAM SEGMENT:     1 REACH:    87 INITIAL WATER CONTENT RESET TO RESIDUAL OF  0.10000E+00
 INITIAL WATER CONTENT IS LESS THAN RESIDUAL WATER CONTENT FOR STREAM SEGMENT:     1 REACH:    88 INITIAL WATER CONTENT RESET TO RESIDUAL OF  0.10000E+00
 INITIAL WATER CONTENT IS LESS THAN RESIDUAL WATER CONTENT FOR STREAM SEGMENT:     1 REACH:    89 INITIAL WATER CONTENT RESET TO RESIDUAL OF  0.10000E+00
 INITIAL WATER CONTENT IS LESS THAN RESIDUAL WATER CONTENT FOR STREAM SEGMENT:     1 REACH:    90 INITIAL WATER CONTENT RESET TO RESIDUAL OF  0.10000E+00
 INITIAL WATER CONTENT IS LESS THAN RESIDUAL WATER CONTENT FOR STREAM SEGMENT:     1 REACH:    91 INITIAL WATER CONTENT RESET TO RESIDUAL OF  0.10000E+00
 INITIAL WATER CONTENT IS LESS THAN RESIDUAL WATER CONTENT FOR STREAM SEGMENT:     1 REACH:    92 INITIAL WATER CONTENT RESET TO RESIDUAL OF  0.10000E+00
 INITIAL WATER CONTENT IS LESS THAN RESIDUAL WATER CONTENT FOR STREAM SEGMENT:     1 REACH:    93 INITIAL WATER CONTENT RESET TO RESIDUAL OF  0.10000E+00
 INITIAL WATER CONTENT IS LESS THAN RESIDUAL WATER CONTENT FOR STREAM SEGMENT:     1 REACH:    94 INITIAL WATER CONTENT RESET TO RESIDUAL OF  0.10000E+00
 INITIAL WATER CONTENT IS LESS THAN RESIDUAL WATER CONTENT FOR STREAM SEGMENT:     1 REACH:    95 INITIAL WATER CONTENT RESET TO RESIDUAL OF  0.10000E+00
 INITIAL WATER CONTENT IS LESS THAN RESIDUAL WATER CONTENT FOR STREAM SEGMENT:     1 REACH:    96 INITIAL WATER CONTENT RESET TO RESIDUAL OF  0.10000E+00
 INITIAL WATER CONTENT IS LESS THAN RESIDUAL WATER CONTENT FOR STREAM SEGMENT:     1 REACH:    97 INITIAL WATER CONTENT RESET TO RESIDUAL OF  0.10000E+00
 INITIAL WATER CONTENT IS LESS THAN RESIDUAL WATER CONTENT FOR STREAM SEGMENT:     1 REACH:    98 INITIAL WATER CONTENT RESET TO RESIDUAL OF  0.10000E+00
 INITIAL WATER CONTENT IS LESS THAN RESIDUAL WATER CONTENT FOR STREAM SEGMENT:     1 REACH:    99 INITIAL WATER CONTENT RESET TO RESIDUAL OF  0.10000E+00
 INITIAL WATER CONTENT IS LESS THAN RESIDUAL WATER CONTENT FOR STREAM SEGMENT:     1 REACH:   100 INITIAL WATER CONTENT RESET TO RESIDUAL OF  0.10000E+00






   8 GAGING STATIONS WERE SPECIFIED.
     (Lakes are identified by a negative value of the Lake Number)
     RECORDS WILL BE WRITTEN TO SEPARATE OUTPUT FILES REPRESENTED BY FOLLOWING UNIT NUMBERS:

 Stream Gages:
  GAGE #   SEGMENT   REACH   UNIT   OUTTYPE
       1       1      20      83       6
       2       1      20      84       7
       3       1      40      85       6
       4       1      40      86       7
       5       1      60      87       6
       6       1      60      88       7
       7       1      80      89       6
       8       1      80      90       7





 PCG -- CONJUGATE-GRADIENT SOLUTION PACKAGE, VERSION 7, 5/2/2005
 # PCG Package input file for hypothetical test simulation
 # Test of SFR2 Package
 MAXIMUM OF    300 CALLS OF SOLUTION ROUTINE
 MAXIMUM OF     20 INTERNAL ITERATIONS PER CALL TO SOLUTION ROUTINE
 MATRIX PRECONDITIONING TYPE :    1



                                    SOLUTION BY THE CONJUGATE-GRADIENT METHOD
                                   -------------------------------------------
                    MAXIMUM NUMBER OF CALLS TO PCG ROUTINE =      300
                        MAXIMUM ITERATIONS PER CALL TO PCG =       20
                               MATRIX PRECONDITIONING TYPE =        1
        RELAXATION FACTOR (ONLY USED WITH PRECOND. TYPE 1) =    0.90000E+00
 PARAMETER OF POLYNOMIAL PRECOND. = 2 (2) OR IS CALCULATED :        2
                         HEAD CHANGE CRITERION FOR CLOSURE =    0.10000E-05
                     RESIDUAL CHANGE CRITERION FOR CLOSURE =    0.10000E-04
            PCG HEAD AND RESIDUAL CHANGE PRINTOUT INTERVAL =      999
     PRINTING FROM SOLVER IS LIMITED(1) OR SUPPRESSED (>1) =        3
                                         DAMPING PARAMETER =    0.96000E+00
1
                            STRESS PERIOD NO.    1, LENGTH =   2592000.    
                            -----------------------------------------------

                              NUMBER OF TIME STEPS =    30

                               MULTIPLIER FOR DELT =     1.100

                            INITIAL TIME STEP SIZE =   15757.40    

 BOUND. NO. LAYER   ROW   COL     STAGE      CONDUCTANCE         
 ----------------------------------------------------------------
      1      1      1    100       75.00           4.100    
      2      1      2    100       75.00           4.100    
      3      1      3    100       75.00           4.100    
      4      1      4    100       75.00           4.100    
      5      1      5    100       75.00           4.100    
      6      1      6    100       75.00           4.100    
      7      1      7    100       75.00           4.100    

      7 GHB CELLS



 CLASSIFICATION & COUNT OF STREAM SEGMENTS BASED ON SOURCE OF INFLOW:

                HEADWATER     DIVERSION     RECEIVES TRIBUTARY FLOW
                ---------     ---------     -----------------------
                     1              0               0



                    INPUT DATA FOR EACH STREAM SEGMENT
 ---------------------------------------------------------------------------------------------

 SEGMENT    SEG.     INFLOW   OVERLAND   STREAM    STREAM   ICALC  OUTFLOW  DIVERSION PRIORITY
    NO.    LENGTH     RATE     RUNOFF      ET       PPT.    METH.  TO SEG.  FROM SEG.    NO.

      1  2.000E+04 3.000E-01 0.000E+00 0.000E+00 0.000E+00    2        0        0        0


         STREAMBED PROPERTIES AND STREAM DIMENSIONS

 SEGMENT     BED HYD. COND.      BED THICKNESS     ELEV.-TOP OF BED     WIDTH OF STREAM     DEPTH OF STREAM    STREAM ROUGHNESS    SAT. WATER CONT.    INT. WATER CONT.    BROOKS/COREY EPS.     UNSAT. HYD. COND.
    No.     UPPER     LOWER     UPPER     LOWER     UPPER     LOWER     UPPER     LOWER     UPPER     LOWER   CHANNEL      BANK     UPPER     LOWER     UPPER     LOWER     UPPER     LOWER     UPPER

     1  3.500E-07 3.500E-07 5.000E-01 5.000E-01 1.400E+02 1.100E+02                                         3.000E-02 4.000E-02 3.000E-01 3.000E-01 1.000E-01 1.000E-01 3.500E+00 3.500E+00 6.000E-06 6.000E-06

  EIGHT POINT CROSS-SECTION DATA FOR SEGMENTS WITH ICALC = 2
    X VALUES X VALUES START FROM LEFT SIDE LOOKING DOWNSTREAM

     SEGMENT NO.        X1        X2        X3        X4        X5        X6        X7        X8
            1      0.000E+00 2.000E+00 4.000E+00 6.000E+00 8.000E+00 1.000E+01 1.200E+01 1.400E+01

    Z VALUES ARE RELATIVE TO STREAMBED ELEVATION

     SEGMENT NO.          Z1        Z2        Z3        Z4        Z5        Z6        Z7        Z8
            1      6.000E+00 4.500E+00 3.500E+00 0.000E+00 3.000E-01 3.500E+00 4.500E+00 6.000E+00



 
 SOLVING FOR HEAD 

 NO OUTPUT CONTROL FOR STRESS PERIOD    1   TIME STEP   1
 
 SOLVING FOR HEAD 

 NO OUTPUT CONTROL FOR STRESS PERIOD    1   TIME STEP   2
 
 SOLVING FOR HEAD 

 NO OUTPUT CONTROL FOR STRESS PERIOD    1   TIME STEP   3
 
 SOLVING FOR HEAD 

 NO OUTPUT CONTROL FOR STRESS PERIOD    1   TIME STEP   4
 
 SOLVING FOR HEAD 

 NO OUTPUT CONTROL FOR STRESS PERIOD    1   TIME STEP   5
 
 SOLVING FOR HEAD 

 NO OUTPUT CONTROL FOR STRESS PERIOD    1   TIME STEP   6
 
 SOLVING FOR HEAD 

 NO OUTPUT CONTROL FOR STRESS PERIOD    1   TIME STEP   7
 
 SOLVING FOR HEAD 

 NO OUTPUT CONTROL FOR STRESS PERIOD    1   TIME STEP   8
 
 SOLVING FOR HEAD 

 NO OUTPUT CONTROL FOR STRESS PERIOD    1   TIME STEP   9
 
 SOLVING FOR HEAD 

 OUTPUT CONTROL FOR STRESS PERIOD    1   TIME STEP  10
    PRINT HEAD FOR ALL LAYERS
    PRINT BUDGET
    SAVE BUDGET

  HEAD DEP BOUNDS   PERIOD    1   STEP  10
 BOUNDARY      1   LAYER   1   ROW     1   COL   100   RATE   -0.300830    
 BOUNDARY      2   LAYER   1   ROW     2   COL   100   RATE   -0.300698    
 BOUNDARY      3   LAYER   1   ROW     3   COL   100   RATE   -0.297425    
 BOUNDARY      4   LAYER   1   ROW     4   COL   100   RATE   -0.207807    
 BOUNDARY      5   LAYER   1   ROW     5   COL   100   RATE   -0.297425    
 BOUNDARY      6   LAYER   1   ROW     6   COL   100   RATE   -0.300698    
 BOUNDARY      7   LAYER   1   ROW     7   COL   100   RATE   -0.300830    



 STREAM LISTING     PERIOD      1   STEP       10

 LAYER ROW COL. STREAM  RCH.   FLOW INTO    STREAM     FLOW OUT OF   OVRLND.    DIRECT     STREAM      STREAM      STREAM     STREAM  STREAMBED   FLOW TO   CHNG. UNSAT. 
                SEG.NO.  NO.   STRM. RCH.    LOSS       STRM. RCH.   RUNOFF     PRECIP       ET         HEAD        DEPTH      WIDTH  CONDCTNC.   WAT. TAB.   STORAGE

   1    4    1     1     1    3.0000E-01  3.4737E-04   2.9965E-01  0.000E+00  0.000E+00  0.000E+00  1.40279E+02  4.294E-01  2.326E+00  3.737E-04  0.000E+00  3.474E-04
   1    4    2     1     2    2.9965E-01  3.4724E-04   2.9931E-01  0.000E+00  0.000E+00  0.000E+00  1.39979E+02  4.292E-01  2.326E+00  3.737E-04  0.000E+00  3.472E-04
   1    4    3     1     3    2.9931E-01  3.4710E-04   2.9896E-01  0.000E+00  0.000E+00  0.000E+00  1.39679E+02  4.290E-01  2.326E+00  3.736E-04  0.000E+00  3.471E-04
   1    4    4     1     4    2.9896E-01  3.4696E-04   2.9861E-01  0.000E+00  0.000E+00  0.000E+00  1.39379E+02  4.288E-01  2.326E+00  3.735E-04  0.000E+00  3.470E-04
   1    4    5     1     5    2.9861E-01  3.4682E-04   2.9826E-01  0.000E+00  0.000E+00  0.000E+00  1.39079E+02  4.286E-01  2.325E+00  3.735E-04  0.000E+00  3.468E-04
   1    4    6     1     6    2.9826E-01  3.4669E-04   2.9792E-01  0.000E+00  0.000E+00  0.000E+00  1.38778E+02  4.284E-01  2.325E+00  3.734E-04  0.000E+00  3.467E-04
   1    4    7     1     7    2.9792E-01  3.4655E-04   2.9757E-01  0.000E+00  0.000E+00  0.000E+00  1.38478E+02  4.282E-01  2.325E+00  3.733E-04  0.000E+00  3.466E-04
   1    4    8     1     8    2.9757E-01  3.4641E-04   2.9722E-01  0.000E+00  0.000E+00  0.000E+00  1.38178E+02  4.280E-01  2.325E+00  3.733E-04  0.000E+00  3.464E-04
   1    4    9     1     9    2.9722E-01  3.4628E-04   2.9688E-01  0.000E+00  0.000E+00  0.000E+00  1.37878E+02  4.278E-01  2.324E+00  3.732E-04  0.000E+00  3.463E-04
   1    4   10     1    10    2.9688E-01  3.4614E-04   2.9653E-01  0.000E+00  0.000E+00  0.000E+00  1.37578E+02  4.276E-01  2.324E+00  3.732E-04  0.000E+00  3.461E-04
   1    4   11     1    11    2.9653E-01  3.4600E-04   2.9619E-01  0.000E+00  0.000E+00  0.000E+00  1.37277E+02  4.274E-01  2.324E+00  3.731E-04  0.000E+00  3.460E-04
   1    4   12     1    12    2.9619E-01  3.4586E-04   2.9584E-01  0.000E+00  0.000E+00  0.000E+00  1.36977E+02  4.272E-01  2.324E+00  3.730E-04  0.000E+00  3.459E-04
   1    4   13     1    13    2.9584E-01  3.4573E-04   2.9549E-01  0.000E+00  0.000E+00  0.000E+00  1.36677E+02  4.270E-01  2.323E+00  3.730E-04  0.000E+00  3.457E-04
   1    4   14     1    14    2.9549E-01  3.4559E-04   2.9515E-01  0.000E+00  0.000E+00  0.000E+00  1.36377E+02  4.268E-01  2.323E+00  3.729E-04  0.000E+00  3.456E-04
   1    4   15     1    15    2.9515E-01  3.4545E-04   2.9480E-01  0.000E+00  0.000E+00  0.000E+00  1.36077E+02  4.266E-01  2.323E+00  3.728E-04  0.000E+00  3.455E-04
   1    4   16     1    16    2.9480E-01  3.4531E-04   2.9446E-01  0.000E+00  0.000E+00  0.000E+00  1.35776E+02  4.264E-01  2.323E+00  3.728E-04  0.000E+00  3.453E-04
   1    4   17     1    17    2.9446E-01  3.4518E-04   2.9411E-01  0.000E+00  0.000E+00  0.000E+00  1.35476E+02  4.262E-01  2.322E+00  3.727E-04  0.000E+00  3.452E-04
   1    4   18     1    18    2.9411E-01  3.4504E-04   2.9377E-01  0.000E+00  0.000E+00  0.000E+00  1.35176E+02  4.260E-01  2.322E+00  3.726E-04  0.000E+00  3.450E-04
   1    4   19     1    19    2.9377E-01  3.4490E-04   2.9342E-01  0.000E+00  0.000E+00  0.000E+00  1.34876E+02  4.258E-01  2.322E+00  3.726E-04  0.000E+00  3.449E-04
   1    4   20     1    20    2.9342E-01  3.4477E-04   2.9308E-01  0.000E+00  0.000E+00  0.000E+00  1.34576E+02  4.256E-01  2.322E+00  3.725E-04  0.000E+00  3.448E-04
   1    4   21     1    21    2.9308E-01  3.4463E-04   2.9273E-01  0.000E+00  0.000E+00  0.000E+00  1.34275E+02  4.254E-01  2.321E+00  3.724E-04  0.000E+00  3.446E-04
   1    4   22     1    22    2.9273E-01  3.4449E-04   2.9239E-01  0.000E+00  0.000E+00  0.000E+00  1.33975E+02  4.252E-01  2.321E+00  3.724E-04  0.000E+00  3.445E-04
   1    4   23     1    23    2.9239E-01  3.4435E-04   2.9205E-01  0.000E+00  0.000E+00  0.000E+00  1.33675E+02  4.250E-01  2.321E+00  3.723E-04  0.000E+00  3.444E-04
   1    4   24     1    24    2.9205E-01  3.4422E-04   2.9170E-01  0.000E+00  0.000E+00  0.000E+00  1.33375E+02  4.248E-01  2.321E+00  3.722E-04  0.000E+00  3.442E-04
   1    4   25     1    25    2.9170E-01  3.4408E-04   2.9136E-01  0.000E+00  0.000E+00  0.000E+00  1.33075E+02  4.246E-01  2.320E+00  3.722E-04  0.000E+00  3.441E-04
   1    4   26     1    26    2.9136E-01  3.4394E-04   2.9101E-01  0.000E+00  0.000E+00  0.000E+00  1.32774E+02  4.244E-01  2.320E+00  3.721E-04  0.000E+00  3.439E-04
   1    4   27     1    27    2.9101E-01  3.4381E-04   2.9067E-01  0.000E+00  0.000E+00  0.000E+00  1.32474E+02  4.242E-01  2.320E+00  3.720E-04  0.000E+00  3.438E-04
   1    4   28     1    28    2.9067E-01  3.4367E-04   2.9033E-01  0.000E+00  0.000E+00  0.000E+00  1.32174E+02  4.240E-01  2.320E+00  3.720E-04  0.000E+00  3.437E-04
   1    4   29     1    29    2.9033E-01  3.4353E-04   2.8998E-01  0.000E+00  0.000E+00  0.000E+00  1.31874E+02  4.237E-01  2.319E+00  3.719E-04  0.000E+00  3.435E-04
   1    4   30     1    30    2.8998E-01  3.4339E-04   2.8964E-01  0.000E+00  0.000E+00  0.000E+00  1.31574E+02  4.235E-01  2.319E+00  3.718E-04  0.000E+00  3.434E-04
   1    4   31     1    31    2.8964E-01  3.4326E-04   2.8930E-01  0.000E+00  0.000E+00  0.000E+00  1.31273E+02  4.233E-01  2.319E+00  3.718E-04  0.000E+00  3.433E-04
   1    4   32     1    32    2.8930E-01  3.4312E-04   2.8895E-01  0.000E+00  0.000E+00  0.000E+00  1.30973E+02  4.231E-01  2.319E+00  3.717E-04  0.000E+00  3.431E-04
   1    4   33     1    33    2.8895E-01  3.4298E-04   2.8861E-01  0.000E+00  0.000E+00  0.000E+00  1.30673E+02  4.229E-01  2.319E+00  3.716E-04  0.000E+00  3.430E-04
   1    4   34     1    34    2.8861E-01  3.4285E-04   2.8827E-01  0.000E+00  0.000E+00  0.000E+00  1.30373E+02  4.227E-01  2.318E+00  3.716E-04  0.000E+00  3.428E-04
   1    4   35     1    35    2.8827E-01  3.4271E-04   2.8792E-01  0.000E+00  0.000E+00  0.000E+00  1.30073E+02  4.225E-01  2.318E+00  3.715E-04  0.000E+00  3.427E-04
   1    4   36     1    36    2.8792E-01  3.4257E-04   2.8758E-01  0.000E+00  0.000E+00  0.000E+00  1.29772E+02  4.223E-01  2.318E+00  3.714E-04  0.000E+00  3.426E-04
   1    4   37     1    37    2.8758E-01  3.4244E-04   2.8724E-01  0.000E+00  0.000E+00  0.000E+00  1.29472E+02  4.221E-01  2.318E+00  3.714E-04  0.000E+00  3.424E-04
   1    4   38     1    38    2.8724E-01  3.4230E-04   2.8690E-01  0.000E+00  0.000E+00  0.000E+00  1.29172E+02  4.219E-01  2.317E+00  3.713E-04  0.000E+00  3.423E-04
   1    4   39     1    39    2.8690E-01  3.4216E-04   2.8655E-01  0.000E+00  0.000E+00  0.000E+00  1.28872E+02  4.217E-01  2.317E+00  3.712E-04  0.000E+00  3.422E-04
   1    4   40     1    40    2.8655E-01  3.4203E-04   2.8621E-01  0.000E+00  0.000E+00  0.000E+00  1.28572E+02  4.215E-01  2.317E+00  3.712E-04  0.000E+00  3.420E-04
   1    4   41     1    41    2.8621E-01  3.4189E-04   2.8587E-01  0.000E+00  0.000E+00  0.000E+00  1.28271E+02  4.213E-01  2.317E+00  3.711E-04  0.000E+00  3.419E-04
   1    4   42     1    42    2.8587E-01  3.4175E-04   2.8553E-01  0.000E+00  0.000E+00  0.000E+00  1.27971E+02  4.211E-01  2.316E+00  3.710E-04  0.000E+00  3.418E-04
   1    4   43     1    43    2.8553E-01  3.4162E-04   2.8519E-01  0.000E+00  0.000E+00  0.000E+00  1.27671E+02  4.209E-01  2.316E+00  3.710E-04  0.000E+00  3.416E-04
   1    4   44     1    44    2.8519E-01  3.4148E-04   2.8485E-01  0.000E+00  0.000E+00  0.000E+00  1.27371E+02  4.207E-01  2.316E+00  3.709E-04  0.000E+00  3.415E-04
   1    4   45     1    45    2.8485E-01  3.4134E-04   2.8450E-01  0.000E+00  0.000E+00  0.000E+00  1.27070E+02  4.205E-01  2.316E+00  3.708E-04  0.000E+00  3.413E-04
   1    4   46     1    46    2.8450E-01  3.4121E-04   2.8416E-01  0.000E+00  0.000E+00  0.000E+00  1.26770E+02  4.203E-01  2.315E+00  3.708E-04  0.000E+00  3.412E-04
   1    4   47     1    47    2.8416E-01  3.4107E-04   2.8382E-01  0.000E+00  0.000E+00  0.000E+00  1.26470E+02  4.201E-01  2.315E+00  3.707E-04  0.000E+00  3.411E-04
   1    4   48     1    48    2.8382E-01  3.4093E-04   2.8348E-01  0.000E+00  0.000E+00  0.000E+00  1.26170E+02  4.199E-01  2.315E+00  3.706E-04  0.000E+00  3.409E-04
   1    4   49     1    49    2.8348E-01  3.4080E-04   2.8314E-01  0.000E+00  0.000E+00  0.000E+00  1.25870E+02  4.197E-01  2.315E+00  3.706E-04  0.000E+00  3.408E-04
   1    4   50     1    50    2.8314E-01  3.4066E-04   2.8280E-01  0.000E+00  0.000E+00  0.000E+00  1.25569E+02  4.195E-01  2.314E+00  3.705E-04  0.000E+00  3.407E-04
   1    4   51     1    51    2.8280E-01  3.4052E-04   2.8246E-01  0.000E+00  0.000E+00  0.000E+00  1.25269E+02  4.193E-01  2.314E+00  3.704E-04  0.000E+00  3.405E-04
   1    4   52     1    52    2.8246E-01  3.4039E-04   2.8212E-01  0.000E+00  0.000E+00  0.000E+00  1.24969E+02  4.191E-01  2.314E+00  3.704E-04  0.000E+00  3.404E-04
   1    4   53     1    53    2.8212E-01  3.4025E-04   2.8178E-01  0.000E+00  0.000E+00  0.000E+00  1.24669E+02  4.189E-01  2.314E+00  3.703E-04  0.000E+00  3.402E-04
   1    4   54     1    54    2.8178E-01  3.4011E-04   2.8144E-01  0.000E+00  0.000E+00  0.000E+00  1.24369E+02  4.187E-01  2.313E+00  3.702E-04  0.000E+00  3.401E-04
   1    4   55     1    55    2.8144E-01  3.3998E-04   2.8110E-01  0.000E+00  0.000E+00  0.000E+00  1.24068E+02  4.185E-01  2.313E+00  3.702E-04  0.000E+00  3.400E-04
   1    4   56     1    56    2.8110E-01  3.3984E-04   2.8076E-01  0.000E+00  0.000E+00  0.000E+00  1.23768E+02  4.182E-01  2.313E+00  3.701E-04  0.000E+00  3.398E-04
   1    4   57     1    57    2.8076E-01  3.3970E-04   2.8042E-01  0.000E+00  0.000E+00  0.000E+00  1.23468E+02  4.180E-01  2.313E+00  3.700E-04  0.000E+00  3.397E-04
   1    4   58     1    58    2.8042E-01  3.3957E-04   2.8008E-01  0.000E+00  0.000E+00  0.000E+00  1.23168E+02  4.178E-01  2.312E+00  3.700E-04  0.000E+00  3.396E-04
   1    4   59     1    59    2.8008E-01  3.3943E-04   2.7974E-01  0.000E+00  0.000E+00  0.000E+00  1.22868E+02  4.176E-01  2.312E+00  3.699E-04  0.000E+00  3.394E-04
   1    4   60     1    60    2.7974E-01  3.3929E-04   2.7940E-01  0.000E+00  0.000E+00  0.000E+00  1.22567E+02  4.174E-01  2.312E+00  3.698E-04  0.000E+00  3.393E-04
   1    4   61     1    61    2.7940E-01  3.3916E-04   2.7906E-01  0.000E+00  0.000E+00  0.000E+00  1.22267E+02  4.172E-01  2.312E+00  3.698E-04  0.000E+00  3.392E-04
   1    4   62     1    62    2.7906E-01  3.3902E-04   2.7872E-01  0.000E+00  0.000E+00  0.000E+00  1.21967E+02  4.170E-01  2.311E+00  3.697E-04  0.000E+00  3.390E-04
   1    4   63     1    63    2.7872E-01  3.3889E-04   2.7838E-01  0.000E+00  0.000E+00  0.000E+00  1.21667E+02  4.168E-01  2.311E+00  3.696E-04  0.000E+00  3.389E-04
   1    4   64     1    64    2.7838E-01  3.3875E-04   2.7804E-01  0.000E+00  0.000E+00  0.000E+00  1.21367E+02  4.166E-01  2.311E+00  3.696E-04  0.000E+00  3.387E-04
   1    4   65     1    65    2.7804E-01  3.3861E-04   2.7771E-01  0.000E+00  0.000E+00  0.000E+00  1.21066E+02  4.164E-01  2.311E+00  3.695E-04  0.000E+00  3.386E-04
   1    4   66     1    66    2.7771E-01  3.3848E-04   2.7737E-01  0.000E+00  0.000E+00  0.000E+00  1.20766E+02  4.162E-01  2.310E+00  3.694E-04  0.000E+00  3.385E-04
   1    4   67     1    67    2.7737E-01  3.3834E-04   2.7703E-01  0.000E+00  0.000E+00  0.000E+00  1.20466E+02  4.160E-01  2.310E+00  3.694E-04  0.000E+00  3.383E-04
   1    4   68     1    68    2.7703E-01  3.3820E-04   2.7669E-01  0.000E+00  0.000E+00  0.000E+00  1.20166E+02  4.158E-01  2.310E+00  3.693E-04  0.000E+00  3.382E-04
   1    4   69     1    69    2.7669E-01  3.3807E-04   2.7635E-01  0.000E+00  0.000E+00  0.000E+00  1.19866E+02  4.156E-01  2.310E+00  3.692E-04  0.000E+00  3.381E-04
   1    4   70     1    70    2.7635E-01  3.3793E-04   2.7601E-01  0.000E+00  0.000E+00  0.000E+00  1.19565E+02  4.154E-01  2.309E+00  3.692E-04  0.000E+00  3.379E-04
   1    4   71     1    71    2.7601E-01  3.3779E-04   2.7568E-01  0.000E+00  0.000E+00  0.000E+00  1.19265E+02  4.152E-01  2.309E+00  3.691E-04  0.000E+00  3.378E-04
   1    4   72     1    72    2.7568E-01  3.3766E-04   2.7534E-01  0.000E+00  0.000E+00  0.000E+00  1.18965E+02  4.150E-01  2.309E+00  3.690E-04  0.000E+00  3.377E-04
   1    4   73     1    73    2.7534E-01  3.3752E-04   2.7500E-01  0.000E+00  0.000E+00  0.000E+00  1.18665E+02  4.148E-01  2.309E+00  3.690E-04  0.000E+00  3.375E-04
   1    4   74     1    74    2.7500E-01  3.3739E-04   2.7466E-01  0.000E+00  0.000E+00  0.000E+00  1.18365E+02  4.146E-01  2.309E+00  3.689E-04  0.000E+00  3.374E-04
   1    4   75     1    75    2.7466E-01  3.3725E-04   2.7433E-01  0.000E+00  0.000E+00  0.000E+00  1.18064E+02  4.144E-01  2.308E+00  3.688E-04  0.000E+00  3.373E-04
   1    4   76     1    76    2.7433E-01  3.3711E-04   2.7399E-01  0.000E+00  0.000E+00  0.000E+00  1.17764E+02  4.142E-01  2.308E+00  3.688E-04  0.000E+00  3.371E-04
   1    4   77     1    77    2.7399E-01  3.3698E-04   2.7365E-01  0.000E+00  0.000E+00  0.000E+00  1.17464E+02  4.140E-01  2.308E+00  3.687E-04  0.000E+00  3.370E-04
   1    4   78     1    78    2.7365E-01  3.3684E-04   2.7332E-01  0.000E+00  0.000E+00  0.000E+00  1.17164E+02  4.138E-01  2.308E+00  3.686E-04  0.000E+00  3.368E-04
   1    4   79     1    79    2.7332E-01  3.3671E-04   2.7298E-01  0.000E+00  0.000E+00  0.000E+00  1.16864E+02  4.136E-01  2.307E+00  3.686E-04  0.000E+00  3.367E-04
   1    4   80     1    80    2.7298E-01  3.3657E-04   2.7264E-01  0.000E+00  0.000E+00  0.000E+00  1.16563E+02  4.134E-01  2.307E+00  3.685E-04  0.000E+00  3.366E-04
   1    4   81     1    81    2.7264E-01  3.3643E-04   2.7231E-01  0.000E+00  0.000E+00  0.000E+00  1.16263E+02  4.132E-01  2.307E+00  3.684E-04  0.000E+00  3.364E-04
   1    4   82     1    82    2.7231E-01  3.3630E-04   2.7197E-01  0.000E+00  0.000E+00  0.000E+00  1.15963E+02  4.129E-01  2.307E+00  3.684E-04  0.000E+00  3.363E-04
   1    4   83     1    83    2.7197E-01  3.3616E-04   2.7163E-01  0.000E+00  0.000E+00  0.000E+00  1.15663E+02  4.127E-01  2.306E+00  3.683E-04  0.000E+00  3.362E-04
   1    4   84     1    84    2.7163E-01  3.3603E-04   2.7130E-01  0.000E+00  0.000E+00  0.000E+00  1.15363E+02  4.125E-01  2.306E+00  3.682E-04  0.000E+00  3.360E-04
   1    4   85     1    85    2.7130E-01  3.3589E-04   2.7096E-01  0.000E+00  0.000E+00  0.000E+00  1.15062E+02  4.123E-01  2.306E+00  3.682E-04  0.000E+00  3.359E-04
   1    4   86     1    86    2.7096E-01  3.3575E-04   2.7063E-01  0.000E+00  0.000E+00  0.000E+00  1.14762E+02  4.121E-01  2.306E+00  3.681E-04  0.000E+00  3.358E-04
   1    4   87     1    87    2.7063E-01  3.3562E-04   2.7029E-01  0.000E+00  0.000E+00  0.000E+00  1.14462E+02  4.119E-01  2.305E+00  3.680E-04  0.000E+00  3.356E-04
   1    4   88     1    88    2.7029E-01  3.3548E-04   2.6996E-01  0.000E+00  0.000E+00  0.000E+00  1.14162E+02  4.117E-01  2.305E+00  3.680E-04  0.000E+00  3.355E-04
   1    4   89     1    89    2.6996E-01  3.3535E-04   2.6962E-01  0.000E+00  0.000E+00  0.000E+00  1.13862E+02  4.115E-01  2.305E+00  3.679E-04  0.000E+00  3.353E-04
   1    4   90     1    90    2.6962E-01  3.3521E-04   2.6928E-01  0.000E+00  0.000E+00  0.000E+00  1.13561E+02  4.113E-01  2.305E+00  3.678E-04  0.000E+00  3.352E-04
   1    4   91     1    91    2.6928E-01  3.3507E-04   2.6895E-01  0.000E+00  0.000E+00  0.000E+00  1.13261E+02  4.111E-01  2.304E+00  3.678E-04  0.000E+00  3.351E-04
   1    4   92     1    92    2.6895E-01  3.3494E-04   2.6861E-01  0.000E+00  0.000E+00  0.000E+00  1.12961E+02  4.109E-01  2.304E+00  3.677E-04  0.000E+00  3.349E-04
   1    4   93     1    93    2.6861E-01  3.3480E-04   2.6828E-01  0.000E+00  0.000E+00  0.000E+00  1.12661E+02  4.107E-01  2.304E+00  3.676E-04  0.000E+00  3.348E-04
   1    4   94     1    94    2.6828E-01  3.3467E-04   2.6795E-01  0.000E+00  0.000E+00  0.000E+00  1.12360E+02  4.105E-01  2.304E+00  3.676E-04  0.000E+00  3.347E-04
   1    4   95     1    95    2.6795E-01  3.3453E-04   2.6761E-01  0.000E+00  0.000E+00  0.000E+00  1.12060E+02  4.103E-01  2.303E+00  3.675E-04  0.000E+00  3.345E-04
   1    4   96     1    96    2.6761E-01  3.3440E-04   2.6728E-01  0.000E+00  0.000E+00  0.000E+00  1.11760E+02  4.101E-01  2.303E+00  3.674E-04  0.000E+00  3.344E-04
   1    4   97     1    97    2.6728E-01  3.3426E-04   2.6694E-01  0.000E+00  0.000E+00  0.000E+00  1.11460E+02  4.099E-01  2.303E+00  3.674E-04  0.000E+00  3.343E-04
   1    4   98     1    98    2.6694E-01  3.3412E-04   2.6661E-01  0.000E+00  0.000E+00  0.000E+00  1.11160E+02  4.097E-01  2.303E+00  3.673E-04  0.000E+00  3.341E-04
   1    4   99     1    99    2.6661E-01  3.3399E-04   2.6627E-01  0.000E+00  0.000E+00  0.000E+00  1.10859E+02  4.095E-01  2.302E+00  3.672E-04  0.000E+00  3.340E-04
   1    4  100     1   100    2.6627E-01  3.3385E-04   2.6594E-01  0.000E+00  0.000E+00  0.000E+00  1.10559E+02  4.093E-01  2.302E+00  3.672E-04  0.000E+00  3.339E-04



1
  VOLUMETRIC BUDGET FOR UNSATURATED ZONE BENEATH STREAMS AT END OF TIME STEP  10 STRESS PERIOD   1
  ------------------------------------------------------------------------------------------------

    CUMULATIVE VOLUMES             L**3    RATES FOR THIS TIME STEP         L**3/T
    ------------------                     ------------------------


          STREAM LOSS =         8553.5381            STREAM LOSS =        3.4060E-02
    CHANGE IN STORAGE =         8553.5381      CHANGE IN STORAGE =        3.4060E-02
       RECHARGE TO GW =            0.0000         RECHARGE TO GW =            0.0000

             TOTAL IN =         8553.5381               TOTAL IN =        3.4060E-02

            TOTAL OUT =         8553.5381              TOTAL OUT =        3.4060E-02

             IN - OUT =            0.0000               IN - OUT =            0.0000

  PERCENT DISCREPANCY =            0.00      PERCENT DISCREPANCY =             0.00



1
              HEAD IN LAYER   1 AT END OF TIME STEP  10 IN STRESS PERIOD    1
  ---------------------------------------------------------------------------

          1      2      3      4      5      6      7      8      9     10
         11     12     13     14     15     16     17     18     19     20
         21     22     23     24     25     26     27     28     29     30
         31     32     33     34     35     36     37     38     39     40
         41     42     43     44     45     46     47     48     49     50
         51     52     53     54     55     56     57     58     59     60
         61     62     63     64     65     66     67     68     69     70
         71     72     73     74     75     76     77     78     79     80
         81     82     83     84     85     86     87     88     89     90
         91     92     93     94     95     96     97     98     99    100
 .........................................................................
   1   104.0  104.0  104.0  104.0  104.0  104.0  104.0  104.0  104.0  104.0
       104.0  104.0  104.0  104.0  104.0  104.0  104.0  104.0  104.0  104.0
       104.0  104.0  104.0  104.0  104.0  104.0  104.0  104.0  104.0  104.0
       104.0  104.0  104.0  104.0  104.0  104.0  104.0  104.0  104.0  104.0
       104.0  104.0  104.0  104.0  104.0  104.0  104.0  104.0  104.0  104.0
       104.0  104.0  104.0  104.0  104.0  104.0  104.0  104.0  104.0  104.0
       104.0  104.0  104.0  104.0  104.0  104.0  104.0  104.0  104.0  104.0
       104.0  104.0  104.0  104.0  104.0  104.0  104.0  104.0  104.0  104.0
       104.0  104.0  103.9  103.8  103.7  103.5  103.3  103.1  102.9  102.6
       102.3  102.0  101.6  101.0  100.4   99.3   96.9   92.6   85.5   75.1
   2   104.0  104.0  104.0  104.0  104.0  104.0  104.0  104.0  104.0  104.0
       104.0  104.0  104.0  104.0  104.0  104.0  104.0  104.0  104.0  104.0
       104.0  104.0  104.0  104.0  104.0  104.0  104.0  104.0  104.0  104.0
       104.0  104.0  104.0  104.0  104.0  104.0  104.0  104.0  104.0  104.0
       104.0  104.0  104.0  104.0  104.0  104.0  104.0  104.0  104.0  104.0
       104.0  104.0  104.0  104.0  104.0  104.0  104.0  104.0  104.0  104.0
       104.0  104.0  104.0  104.0  104.0  104.0  104.0  104.0  104.0  104.0
       104.0  104.0  104.0  104.0  104.0  104.0  104.0  104.0  104.0  104.0
       104.0  104.0  103.9  103.8  103.7  103.5  103.3  103.1  102.9  102.6
       102.3  102.0  101.6  101.0  100.4   99.3   96.9   92.6   85.5   75.1
   3   104.0  104.0  104.0  104.0  104.0  104.0  104.0  104.0  104.0  104.0
       104.0  104.0  104.0  104.0  104.0  104.0  104.0  104.0  104.0  104.0
       104.0  104.0  104.0  104.0  104.0  104.0  104.0  104.0  104.0  104.0
       104.0  104.0  104.0  104.0  104.0  104.0  104.0  104.0  104.0  104.0
       104.0  104.0  104.0  104.0  104.0  104.0  104.0  104.0  104.0  104.0
       104.0  104.0  104.0  104.0  104.0  104.0  104.0  104.0  104.0  104.0
       104.0  104.0  104.0  104.0  104.0  104.0  104.0  104.0  104.0  104.0
       104.0  104.0  104.0  104.0  104.0  104.0  104.0  104.0  104.0  104.0
       104.0  104.0  103.9  103.8  103.7  103.5  103.3  103.1  102.9  102.6
       102.3  102.0  101.6  101.0  100.4   99.3   96.9   92.6   85.5   75.1
   4   104.0  104.0  104.0  104.0  104.0  104.0  104.0  104.0  104.0  104.0
       104.0  104.0  104.0  104.0  104.0  104.0  104.0  104.0  104.0  104.0
       104.0  104.0  104.0  104.0  104.0  104.0  104.0  104.0  104.0  104.0
       104.0  104.0  104.0  104.0  104.0  104.0  104.0  104.0  104.0  104.0
       104.0  104.0  104.0  104.0  104.0  104.0  104.0  104.0  104.0  104.0
       104.0  104.0  104.0  104.0  104.0  104.0  104.0  104.0  104.0  104.0
       104.0  104.0  104.0  104.0  104.0  104.0  104.0  104.0  104.0  104.0
       104.0  104.0  104.0  104.0  104.0  104.0  104.0  104.0  104.0  104.0
       104.0  104.0  103.9  103.8  103.7  103.5  103.3  103.1  102.9  102.6
       102.3  102.0  101.6  101.0  100.4   99.3   96.9   92.6   85.5   75.1
   5   104.0  104.0  104.0  104.0  104.0  104.0  104.0  104.0  104.0  104.0
       104.0  104.0  104.0  104.0  104.0  104.0  104.0  104.0  104.0  104.0
       104.0  104.0  104.0  104.0  104.0  104.0  104.0  104.0  104.0  104.0
       104.0  104.0  104.0  104.0  104.0  104.0  104.0  104.0  104.0  104.0
       104.0  104.0  104.0  104.0  104.0  104.0  104.0  104.0  104.0  104.0
       104.0  104.0  104.0  104.0  104.0  104.0  104.0  104.0  104.0  104.0
       104.0  104.0  104.0  104.0  104.0  104.0  104.0  104.0  104.0  104.0
       104.0  104.0  104.0  104.0  104.0  104.0  104.0  104.0  104.0  104.0
       104.0  104.0  103.9  103.8  103.7  103.5  103.3  103.1  102.9  102.6
       102.3  102.0  101.6  101.0  100.4   99.3   96.9   92.6   85.5   75.1
   6   104.0  104.0  104.0  104.0  104.0  104.0  104.0  104.0  104.0  104.0
       104.0  104.0  104.0  104.0  104.0  104.0  104.0  104.0  104.0  104.0
       104.0  104.0  104.0  104.0  104.0  104.0  104.0  104.0  104.0  104.0
       104.0  104.0  104.0  104.0  104.0  104.0  104.0  104.0  104.0  104.0
       104.0  104.0  104.0  104.0  104.0  104.0  104.0  104.0  104.0  104.0
       104.0  104.0  104.0  104.0  104.0  104.0  104.0  104.0  104.0  104.0
       104.0  104.0  104.0  104.0  104.0  104.0  104.0  104.0  104.0  104.0
       104.0  104.0  104.0  104.0  104.0  104.0  104.0  104.0  104.0  104.0
       104.0  104.0  103.9  103.8  103.7  103.5  103.3  103.1  102.9  102.6
       102.3  102.0  101.6  101.0  100.4   99.3   96.9   92.6   85.5   75.1
   7   104.0  104.0  104.0  104.0  104.0  104.0  104.0  104.0  104.0  104.0
       104.0  104.0  104.0  104.0  104.0  104.0  104.0  104.0  104.0  104.0
       104.0  104.0  104.0  104.0  104.0  104.0  104.0  104.0  104.0  104.0
       104.0  104.0  104.0  104.0  104.0  104.0  104.0  104.0  104.0  104.0
       104.0  104.0  104.0  104.0  104.0  104.0  104.0  104.0  104.0  104.0
       104.0  104.0  104.0  104.0  104.0  104.0  104.0  104.0  104.0  104.0
       104.0  104.0  104.0  104.0  104.0  104.0  104.0  104.0  104.0  104.0
       104.0  104.0  104.0  104.0  104.0  104.0  104.0  104.0  104.0  104.0
       104.0  104.0  103.9  103.8  103.7  103.5  103.3  103.1  102.9  102.6
       102.3  102.0  101.6  101.0  100.4   99.3   96.9   92.6   85.5   75.1
1
  VOLUMETRIC BUDGET FOR ENTIRE MODEL AT END OF TIME STEP 10 IN STRESS PERIOD   1
  ------------------------------------------------------------------------------

     CUMULATIVE VOLUMES      L**3       RATES FOR THIS TIME STEP      L**3/T
     ------------------                 ------------------------

           IN:                                      IN:
           ---                                      ---
             STORAGE =     1302275.7500               STORAGE =           2.0056
       CONSTANT HEAD =           0.0000         CONSTANT HEAD =           0.0000
     HEAD DEP BOUNDS =           0.0000       HEAD DEP BOUNDS =           0.0000
      STREAM LEAKAGE =           0.0000        STREAM LEAKAGE =           0.0000

            TOTAL IN =     1302275.7500              TOTAL IN =           2.0056

          OUT:                                     OUT:
          ----                                     ----
             STORAGE =          20.6756               STORAGE =       2.4679E-04
       CONSTANT HEAD =           0.0000         CONSTANT HEAD =           0.0000
     HEAD DEP BOUNDS =     1302250.0000       HEAD DEP BOUNDS =           2.0057
      STREAM LEAKAGE =           0.0000        STREAM LEAKAGE =           0.0000

           TOTAL OUT =     1302270.6250             TOTAL OUT =           2.0060

            IN - OUT =           5.1250              IN - OUT =      -3.6764E-04

 PERCENT DISCREPANCY =           0.00     PERCENT DISCREPANCY =          -0.02






          TIME SUMMARY AT END OF TIME STEP  10 IN STRESS PERIOD    1
                    SECONDS     MINUTES      HOURS       DAYS        YEARS
                    -----------------------------------------------------------
   TIME STEP LENGTH  37155.      619.25      10.321     0.43004     1.17738E-03
 STRESS PERIOD TIME 2.51132E+05  4185.5      69.759      2.9066     7.95791E-03
         TOTAL TIME 2.51132E+05  4185.5      69.759      2.9066     7.95791E-03
1
 
 SOLVING FOR HEAD 

 NO OUTPUT CONTROL FOR STRESS PERIOD    1   TIME STEP  11
 
 SOLVING FOR HEAD 

 NO OUTPUT CONTROL FOR STRESS PERIOD    1   TIME STEP  12
 
 SOLVING FOR HEAD 

 NO OUTPUT CONTROL FOR STRESS PERIOD    1   TIME STEP  13
 
 SOLVING FOR HEAD 

 NO OUTPUT CONTROL FOR STRESS PERIOD    1   TIME STEP  14
 
 SOLVING FOR HEAD 

 NO OUTPUT CONTROL FOR STRESS PERIOD    1   TIME STEP  15
 
 SOLVING FOR HEAD 

 NO OUTPUT CONTROL FOR STRESS PERIOD    1   TIME STEP  16
 
 SOLVING FOR HEAD 

 NO OUTPUT CONTROL FOR STRESS PERIOD    1   TIME STEP  17
 
 SOLVING FOR HEAD 

 NO OUTPUT CONTROL FOR STRESS PERIOD    1   TIME STEP  18
 
 SOLVING FOR HEAD 

 NO OUTPUT CONTROL FOR STRESS PERIOD    1   TIME STEP  19
 
 SOLVING FOR HEAD 

 NO OUTPUT CONTROL FOR STRESS PERIOD    1   TIME STEP  20
 
 SOLVING FOR HEAD 

 NO OUTPUT CONTROL FOR STRESS PERIOD    1   TIME STEP  21
 
 SOLVING FOR HEAD 

 NO OUTPUT CONTROL FOR STRESS PERIOD    1   TIME STEP  22
 
 SOLVING FOR HEAD 

 NO OUTPUT CONTROL FOR STRESS PERIOD    1   TIME STEP  23
 
 SOLVING FOR HEAD 

 NO OUTPUT CONTROL FOR STRESS PERIOD    1   TIME STEP  24
 
 SOLVING FOR HEAD 

 NO OUTPUT CONTROL FOR STRESS PERIOD    1   TIME STEP  25
 
 SOLVING FOR HEAD 

 NO OUTPUT CONTROL FOR STRESS PERIOD    1   TIME STEP  26
 
 SOLVING FOR HEAD 

 NO OUTPUT CONTROL FOR STRESS PERIOD    1   TIME STEP  27
 
 SOLVING FOR HEAD 

 NO OUTPUT CONTROL FOR STRESS PERIOD    1   TIME STEP  28
 
 SOLVING FOR HEAD 

 NO OUTPUT CONTROL FOR STRESS PERIOD    1   TIME STEP  29
 
 SOLVING FOR HEAD 

 OUTPUT CONTROL FOR STRESS PERIOD    1   TIME STEP  30
    PRINT HEAD FOR ALL LAYERS
    PRINT BUDGET
    SAVE BUDGET

  HEAD DEP BOUNDS   PERIOD    1   STEP  30
 BOUNDARY      1   LAYER   1   ROW     1   COL   100   RATE   -0.100810    
 BOUNDARY      2   LAYER   1   ROW     2   COL   100   RATE   -0.100775    
 BOUNDARY      3   LAYER   1   ROW     3   COL   100   RATE   -9.967826E-02
 BOUNDARY      4   LAYER   1   ROW     4   COL   100   RATE   -6.966908E-02
 BOUNDARY      5   LAYER   1   ROW     5   COL   100   RATE   -9.967826E-02
 BOUNDARY      6   LAYER   1   ROW     6   COL   100   RATE   -0.100775    
 BOUNDARY      7   LAYER   1   ROW     7   COL   100   RATE   -0.100810    



 STREAM LISTING     PERIOD      1   STEP       30

 LAYER ROW COL. STREAM  RCH.   FLOW INTO    STREAM     FLOW OUT OF   OVRLND.    DIRECT     STREAM      STREAM      STREAM     STREAM  STREAMBED   FLOW TO   CHNG. UNSAT. 
                SEG.NO.  NO.   STRM. RCH.    LOSS       STRM. RCH.   RUNOFF     PRECIP       ET         HEAD        DEPTH      WIDTH  CONDCTNC.   WAT. TAB.   STORAGE

   1    4    1     1     1    3.0000E-01  3.4737E-04   2.9965E-01  0.000E+00  0.000E+00  0.000E+00  1.40279E+02  4.294E-01  2.326E+00  3.737E-04  0.000E+00  3.474E-04
   1    4    2     1     2    2.9965E-01  3.4724E-04   2.9931E-01  0.000E+00  0.000E+00  0.000E+00  1.39979E+02  4.292E-01  2.326E+00  3.737E-04  0.000E+00  3.472E-04
   1    4    3     1     3    2.9931E-01  3.4710E-04   2.9896E-01  0.000E+00  0.000E+00  0.000E+00  1.39679E+02  4.290E-01  2.326E+00  3.736E-04  0.000E+00  3.471E-04
   1    4    4     1     4    2.9896E-01  3.4696E-04   2.9861E-01  0.000E+00  0.000E+00  0.000E+00  1.39379E+02  4.288E-01  2.326E+00  3.735E-04  0.000E+00  3.470E-04
   1    4    5     1     5    2.9861E-01  3.4682E-04   2.9826E-01  0.000E+00  0.000E+00  0.000E+00  1.39079E+02  4.286E-01  2.325E+00  3.735E-04  0.000E+00  3.468E-04
   1    4    6     1     6    2.9826E-01  3.4669E-04   2.9792E-01  0.000E+00  0.000E+00  0.000E+00  1.38778E+02  4.284E-01  2.325E+00  3.734E-04  0.000E+00  3.467E-04
   1    4    7     1     7    2.9792E-01  3.4655E-04   2.9757E-01  0.000E+00  0.000E+00  0.000E+00  1.38478E+02  4.282E-01  2.325E+00  3.733E-04  0.000E+00  3.466E-04
   1    4    8     1     8    2.9757E-01  3.4641E-04   2.9722E-01  0.000E+00  0.000E+00  0.000E+00  1.38178E+02  4.280E-01  2.325E+00  3.733E-04  0.000E+00  3.464E-04
   1    4    9     1     9    2.9722E-01  3.4628E-04   2.9688E-01  0.000E+00  0.000E+00  0.000E+00  1.37878E+02  4.278E-01  2.324E+00  3.732E-04  0.000E+00  3.463E-04
   1    4   10     1    10    2.9688E-01  3.4614E-04   2.9653E-01  0.000E+00  0.000E+00  0.000E+00  1.37578E+02  4.276E-01  2.324E+00  3.732E-04  0.000E+00  3.461E-04
   1    4   11     1    11    2.9653E-01  3.4600E-04   2.9619E-01  0.000E+00  0.000E+00  0.000E+00  1.37277E+02  4.274E-01  2.324E+00  3.731E-04  0.000E+00  3.460E-04
   1    4   12     1    12    2.9619E-01  3.4586E-04   2.9584E-01  0.000E+00  0.000E+00  0.000E+00  1.36977E+02  4.272E-01  2.324E+00  3.730E-04  0.000E+00  3.459E-04
   1    4   13     1    13    2.9584E-01  3.4573E-04   2.9549E-01  0.000E+00  0.000E+00  0.000E+00  1.36677E+02  4.270E-01  2.323E+00  3.730E-04  0.000E+00  3.457E-04
   1    4   14     1    14    2.9549E-01  3.4559E-04   2.9515E-01  0.000E+00  0.000E+00  0.000E+00  1.36377E+02  4.268E-01  2.323E+00  3.729E-04  0.000E+00  3.456E-04
   1    4   15     1    15    2.9515E-01  3.4545E-04   2.9480E-01  0.000E+00  0.000E+00  0.000E+00  1.36077E+02  4.266E-01  2.323E+00  3.728E-04  0.000E+00  3.455E-04
   1    4   16     1    16    2.9480E-01  3.4531E-04   2.9446E-01  0.000E+00  0.000E+00  0.000E+00  1.35776E+02  4.264E-01  2.323E+00  3.728E-04  0.000E+00  3.453E-04
   1    4   17     1    17    2.9446E-01  3.4518E-04   2.9411E-01  0.000E+00  0.000E+00  0.000E+00  1.35476E+02  4.262E-01  2.322E+00  3.727E-04  0.000E+00  3.452E-04
   1    4   18     1    18    2.9411E-01  3.4504E-04   2.9377E-01  0.000E+00  0.000E+00  0.000E+00  1.35176E+02  4.260E-01  2.322E+00  3.726E-04  0.000E+00  3.450E-04
   1    4   19     1    19    2.9377E-01  3.4490E-04   2.9342E-01  0.000E+00  0.000E+00  0.000E+00  1.34876E+02  4.258E-01  2.322E+00  3.726E-04  0.000E+00  3.449E-04
   1    4   20     1    20    2.9342E-01  3.4477E-04   2.9308E-01  0.000E+00  0.000E+00  0.000E+00  1.34576E+02  4.256E-01  2.322E+00  3.725E-04  0.000E+00  3.448E-04
   1    4   21     1    21    2.9308E-01  3.4463E-04   2.9273E-01  0.000E+00  0.000E+00  0.000E+00  1.34275E+02  4.254E-01  2.321E+00  3.724E-04  0.000E+00  3.446E-04
   1    4   22     1    22    2.9273E-01  3.4449E-04   2.9239E-01  0.000E+00  0.000E+00  0.000E+00  1.33975E+02  4.252E-01  2.321E+00  3.724E-04  0.000E+00  3.445E-04
   1    4   23     1    23    2.9239E-01  3.4435E-04   2.9205E-01  0.000E+00  0.000E+00  0.000E+00  1.33675E+02  4.250E-01  2.321E+00  3.723E-04  0.000E+00  3.444E-04
   1    4   24     1    24    2.9205E-01  3.4422E-04   2.9170E-01  0.000E+00  0.000E+00  0.000E+00  1.33375E+02  4.248E-01  2.321E+00  3.722E-04  0.000E+00  3.442E-04
   1    4   25     1    25    2.9170E-01  3.4408E-04   2.9136E-01  0.000E+00  0.000E+00  0.000E+00  1.33075E+02  4.246E-01  2.320E+00  3.722E-04  0.000E+00  3.441E-04
   1    4   26     1    26    2.9136E-01  3.4394E-04   2.9101E-01  0.000E+00  0.000E+00  0.000E+00  1.32774E+02  4.244E-01  2.320E+00  3.721E-04  0.000E+00  3.439E-04
   1    4   27     1    27    2.9101E-01  3.4381E-04   2.9067E-01  0.000E+00  0.000E+00  0.000E+00  1.32474E+02  4.242E-01  2.320E+00  3.720E-04  0.000E+00  3.438E-04
   1    4   28     1    28    2.9067E-01  3.4367E-04   2.9033E-01  0.000E+00  0.000E+00  0.000E+00  1.32174E+02  4.240E-01  2.320E+00  3.720E-04  0.000E+00  3.437E-04
   1    4   29     1    29    2.9033E-01  3.4353E-04   2.8998E-01  0.000E+00  0.000E+00  0.000E+00  1.31874E+02  4.237E-01  2.319E+00  3.719E-04  0.000E+00  3.435E-04
   1    4   30     1    30    2.8998E-01  3.4339E-04   2.8964E-01  0.000E+00  0.000E+00  0.000E+00  1.31574E+02  4.235E-01  2.319E+00  3.718E-04  0.000E+00  3.434E-04
   1    4   31     1    31    2.8964E-01  3.4326E-04   2.8930E-01  0.000E+00  0.000E+00  0.000E+00  1.31273E+02  4.233E-01  2.319E+00  3.718E-04  0.000E+00  3.433E-04
   1    4   32     1    32    2.8930E-01  3.4312E-04   2.8895E-01  0.000E+00  0.000E+00  0.000E+00  1.30973E+02  4.231E-01  2.319E+00  3.717E-04  0.000E+00  3.431E-04
   1    4   33     1    33    2.8895E-01  3.4298E-04   2.8861E-01  0.000E+00  0.000E+00  0.000E+00  1.30673E+02  4.229E-01  2.319E+00  3.716E-04  0.000E+00  3.430E-04
   1    4   34     1    34    2.8861E-01  3.4285E-04   2.8827E-01  0.000E+00  0.000E+00  0.000E+00  1.30373E+02  4.227E-01  2.318E+00  3.716E-04  0.000E+00  3.428E-04
   1    4   35     1    35    2.8827E-01  3.4271E-04   2.8792E-01  0.000E+00  0.000E+00  0.000E+00  1.30073E+02  4.225E-01  2.318E+00  3.715E-04  0.000E+00  3.427E-04
   1    4   36     1    36    2.8792E-01  3.4257E-04   2.8758E-01  0.000E+00  0.000E+00  0.000E+00  1.29772E+02  4.223E-01  2.318E+00  3.714E-04  0.000E+00  3.426E-04
   1    4   37     1    37    2.8758E-01  3.4244E-04   2.8724E-01  0.000E+00  0.000E+00  0.000E+00  1.29472E+02  4.221E-01  2.318E+00  3.714E-04  0.000E+00  3.424E-04
   1    4   38     1    38    2.8724E-01  3.4230E-04   2.8690E-01  0.000E+00  0.000E+00  0.000E+00  1.29172E+02  4.219E-01  2.317E+00  3.713E-04  0.000E+00  3.423E-04
   1    4   39     1    39    2.8690E-01  3.4216E-04   2.8655E-01  0.000E+00  0.000E+00  0.000E+00  1.28872E+02  4.217E-01  2.317E+00  3.712E-04  0.000E+00  3.422E-04
   1    4   40     1    40    2.8655E-01  3.4203E-04   2.8621E-01  0.000E+00  0.000E+00  0.000E+00  1.28572E+02  4.215E-01  2.317E+00  3.712E-04  0.000E+00  3.420E-04
   1    4   41     1    41    2.8621E-01  3.4189E-04   2.8587E-01  0.000E+00  0.000E+00  0.000E+00  1.28271E+02  4.213E-01  2.317E+00  3.711E-04  0.000E+00  3.419E-04
   1    4   42     1    42    2.8587E-01  3.4175E-04   2.8553E-01  0.000E+00  0.000E+00  0.000E+00  1.27971E+02  4.211E-01  2.316E+00  3.710E-04  0.000E+00  3.418E-04
   1    4   43     1    43    2.8553E-01  3.4162E-04   2.8519E-01  0.000E+00  0.000E+00  0.000E+00  1.27671E+02  4.209E-01  2.316E+00  3.710E-04  0.000E+00  3.416E-04
   1    4   44     1    44    2.8519E-01  3.4148E-04   2.8485E-01  0.000E+00  0.000E+00  0.000E+00  1.27371E+02  4.207E-01  2.316E+00  3.709E-04  0.000E+00  3.415E-04
   1    4   45     1    45    2.8485E-01  3.4134E-04   2.8450E-01  0.000E+00  0.000E+00  0.000E+00  1.27070E+02  4.205E-01  2.316E+00  3.708E-04  0.000E+00  3.413E-04
   1    4   46     1    46    2.8450E-01  3.4121E-04   2.8416E-01  0.000E+00  0.000E+00  0.000E+00  1.26770E+02  4.203E-01  2.315E+00  3.708E-04  0.000E+00  3.412E-04
   1    4   47     1    47    2.8416E-01  3.4107E-04   2.8382E-01  0.000E+00  0.000E+00  0.000E+00  1.26470E+02  4.201E-01  2.315E+00  3.707E-04  0.000E+00  3.411E-04
   1    4   48     1    48    2.8382E-01  3.4093E-04   2.8348E-01  0.000E+00  0.000E+00  0.000E+00  1.26170E+02  4.199E-01  2.315E+00  3.706E-04  0.000E+00  3.409E-04
   1    4   49     1    49    2.8348E-01  3.4080E-04   2.8314E-01  0.000E+00  0.000E+00  0.000E+00  1.25870E+02  4.197E-01  2.315E+00  3.706E-04  0.000E+00  3.408E-04
   1    4   50     1    50    2.8314E-01  3.4066E-04   2.8280E-01  0.000E+00  0.000E+00  0.000E+00  1.25569E+02  4.195E-01  2.314E+00  3.705E-04  0.000E+00  3.407E-04
   1    4   51     1    51    2.8280E-01  3.4052E-04   2.8246E-01  0.000E+00  0.000E+00  0.000E+00  1.25269E+02  4.193E-01  2.314E+00  3.704E-04  0.000E+00  3.405E-04
   1    4   52     1    52    2.8246E-01  3.4039E-04   2.8212E-01  0.000E+00  0.000E+00  0.000E+00  1.24969E+02  4.191E-01  2.314E+00  3.704E-04  0.000E+00  3.404E-04
   1    4   53     1    53    2.8212E-01  3.4025E-04   2.8178E-01  0.000E+00  0.000E+00  0.000E+00  1.24669E+02  4.189E-01  2.314E+00  3.703E-04  0.000E+00  3.402E-04
   1    4   54     1    54    2.8178E-01  3.4011E-04   2.8144E-01  0.000E+00  0.000E+00  0.000E+00  1.24369E+02  4.187E-01  2.313E+00  3.702E-04  0.000E+00  3.401E-04
   1    4   55     1    55    2.8144E-01  3.3998E-04   2.8110E-01  0.000E+00  0.000E+00  0.000E+00  1.24068E+02  4.185E-01  2.313E+00  3.702E-04  0.000E+00  3.400E-04
   1    4   56     1    56    2.8110E-01  3.3984E-04   2.8076E-01  0.000E+00  0.000E+00  0.000E+00  1.23768E+02  4.182E-01  2.313E+00  3.701E-04  0.000E+00  3.398E-04
   1    4   57     1    57    2.8076E-01  3.3970E-04   2.8042E-01  0.000E+00  0.000E+00  0.000E+00  1.23468E+02  4.180E-01  2.313E+00  3.700E-04  0.000E+00  3.397E-04
   1    4   58     1    58    2.8042E-01  3.3957E-04   2.8008E-01  0.000E+00  0.000E+00  0.000E+00  1.23168E+02  4.178E-01  2.312E+00  3.700E-04  0.000E+00  3.396E-04
   1    4   59     1    59    2.8008E-01  3.3943E-04   2.7974E-01  0.000E+00  0.000E+00  0.000E+00  1.22868E+02  4.176E-01  2.312E+00  3.699E-04  0.000E+00  3.394E-04
   1    4   60     1    60    2.7974E-01  3.3929E-04   2.7940E-01  0.000E+00  0.000E+00  0.000E+00  1.22567E+02  4.174E-01  2.312E+00  3.698E-04  0.000E+00  3.393E-04
   1    4   61     1    61    2.7940E-01  3.3916E-04   2.7906E-01  0.000E+00  0.000E+00  0.000E+00  1.22267E+02  4.172E-01  2.312E+00  3.698E-04  0.000E+00  3.392E-04
   1    4   62     1    62    2.7906E-01  3.3902E-04   2.7872E-01  0.000E+00  0.000E+00  0.000E+00  1.21967E+02  4.170E-01  2.311E+00  3.697E-04  0.000E+00  3.390E-04
   1    4   63     1    63    2.7872E-01  3.3889E-04   2.7838E-01  0.000E+00  0.000E+00  0.000E+00  1.21667E+02  4.168E-01  2.311E+00  3.696E-04  0.000E+00  3.389E-04
   1    4   64     1    64    2.7838E-01  3.3875E-04   2.7804E-01  0.000E+00  0.000E+00  0.000E+00  1.21367E+02  4.166E-01  2.311E+00  3.696E-04  0.000E+00  3.387E-04
   1    4   65     1    65    2.7804E-01  3.3861E-04   2.7771E-01  0.000E+00  0.000E+00  0.000E+00  1.21066E+02  4.164E-01  2.311E+00  3.695E-04  0.000E+00  3.386E-04
   1    4   66     1    66    2.7771E-01  3.3848E-04   2.7737E-01  0.000E+00  0.000E+00  0.000E+00  1.20766E+02  4.162E-01  2.310E+00  3.694E-04  0.000E+00  3.385E-04
   1    4   67     1    67    2.7737E-01  3.3834E-04   2.7703E-01  0.000E+00  0.000E+00  0.000E+00  1.20466E+02  4.160E-01  2.310E+00  3.694E-04  0.000E+00  3.383E-04
   1    4   68     1    68    2.7703E-01  3.3820E-04   2.7669E-01  0.000E+00  0.000E+00  0.000E+00  1.20166E+02  4.158E-01  2.310E+00  3.693E-04  0.000E+00  3.382E-04
   1    4   69     1    69    2.7669E-01  3.3807E-04   2.7635E-01  0.000E+00  0.000E+00  0.000E+00  1.19866E+02  4.156E-01  2.310E+00  3.692E-04  0.000E+00  3.381E-04
   1    4   70     1    70    2.7635E-01  3.3793E-04   2.7601E-01  0.000E+00  0.000E+00  0.000E+00  1.19565E+02  4.154E-01  2.309E+00  3.692E-04  0.000E+00  3.379E-04
   1    4   71     1    71    2.7601E-01  3.3779E-04   2.7568E-01  0.000E+00  0.000E+00  0.000E+00  1.19265E+02  4.152E-01  2.309E+00  3.691E-04  0.000E+00  3.378E-04
   1    4   72     1    72    2.7568E-01  3.3766E-04   2.7534E-01  0.000E+00  0.000E+00  0.000E+00  1.18965E+02  4.150E-01  2.309E+00  3.690E-04  0.000E+00  3.377E-04
   1    4   73     1    73    2.7534E-01  3.3752E-04   2.7500E-01  0.000E+00  0.000E+00  0.000E+00  1.18665E+02  4.148E-01  2.309E+00  3.690E-04  0.000E+00  3.375E-04
   1    4   74     1    74    2.7500E-01  3.3739E-04   2.7466E-01  0.000E+00  0.000E+00  0.000E+00  1.18365E+02  4.146E-01  2.309E+00  3.689E-04  0.000E+00  3.374E-04
   1    4   75     1    75    2.7466E-01  3.3725E-04   2.7433E-01  0.000E+00  0.000E+00  0.000E+00  1.18064E+02  4.144E-01  2.308E+00  3.688E-04  0.000E+00  3.373E-04
   1    4   76     1    76    2.7433E-01  3.3711E-04   2.7399E-01  0.000E+00  0.000E+00  0.000E+00  1.17764E+02  4.142E-01  2.308E+00  3.688E-04  0.000E+00  3.371E-04
   1    4   77     1    77    2.7399E-01  3.3698E-04   2.7365E-01  0.000E+00  0.000E+00  0.000E+00  1.17464E+02  4.140E-01  2.308E+00  3.687E-04  0.000E+00  3.370E-04
   1    4   78     1    78    2.7365E-01  3.3684E-04   2.7332E-01  0.000E+00  0.000E+00  0.000E+00  1.17164E+02  4.138E-01  2.308E+00  3.686E-04  0.000E+00  3.368E-04
   1    4   79     1    79    2.7332E-01  3.3671E-04   2.7298E-01  0.000E+00  0.000E+00  0.000E+00  1.16864E+02  4.136E-01  2.307E+00  3.686E-04  0.000E+00  3.367E-04
   1    4   80     1    80    2.7298E-01  3.3657E-04   2.7264E-01  0.000E+00  0.000E+00  0.000E+00  1.16563E+02  4.134E-01  2.307E+00  3.685E-04  0.000E+00  3.366E-04
   1    4   81     1    81    2.7264E-01  3.3643E-04   2.7231E-01  0.000E+00  0.000E+00  0.000E+00  1.16263E+02  4.132E-01  2.307E+00  3.684E-04  0.000E+00  3.364E-04
   1    4   82     1    82    2.7231E-01  3.3630E-04   2.7197E-01  0.000E+00  0.000E+00  0.000E+00  1.15963E+02  4.129E-01  2.307E+00  3.684E-04  0.000E+00  3.363E-04
   1    4   83     1    83    2.7197E-01  3.3616E-04   2.7163E-01  0.000E+00  0.000E+00  0.000E+00  1.15663E+02  4.127E-01  2.306E+00  3.683E-04  0.000E+00  3.362E-04
   1    4   84     1    84    2.7163E-01  3.3603E-04   2.7130E-01  0.000E+00  0.000E+00  0.000E+00  1.15363E+02  4.125E-01  2.306E+00  3.682E-04  0.000E+00  3.360E-04
   1    4   85     1    85    2.7130E-01  3.3589E-04   2.7096E-01  0.000E+00  0.000E+00  0.000E+00  1.15062E+02  4.123E-01  2.306E+00  3.682E-04  0.000E+00  3.359E-04
   1    4   86     1    86    2.7096E-01  3.3575E-04   2.7063E-01  0.000E+00  0.000E+00  0.000E+00  1.14762E+02  4.121E-01  2.306E+00  3.681E-04  0.000E+00  3.358E-04
   1    4   87     1    87    2.7063E-01  3.3562E-04   2.7029E-01  0.000E+00  0.000E+00  0.000E+00  1.14462E+02  4.119E-01  2.305E+00  3.680E-04  0.000E+00  3.356E-04
   1    4   88     1    88    2.7029E-01  3.3548E-04   2.6996E-01  0.000E+00  0.000E+00  0.000E+00  1.14162E+02  4.117E-01  2.305E+00  3.680E-04  0.000E+00  3.355E-04
   1    4   89     1    89    2.6996E-01  3.3535E-04   2.6962E-01  0.000E+00  0.000E+00  0.000E+00  1.13862E+02  4.115E-01  2.305E+00  3.679E-04  0.000E+00  3.353E-04
   1    4   90     1    90    2.6962E-01  3.3521E-04   2.6928E-01  0.000E+00  0.000E+00  0.000E+00  1.13561E+02  4.113E-01  2.305E+00  3.678E-04  0.000E+00  3.352E-04
   1    4   91     1    91    2.6928E-01  3.3507E-04   2.6895E-01  0.000E+00  0.000E+00  0.000E+00  1.13261E+02  4.111E-01  2.304E+00  3.678E-04  0.000E+00  3.351E-04
   1    4   92     1    92    2.6895E-01  3.3494E-04   2.6861E-01  0.000E+00  0.000E+00  0.000E+00  1.12961E+02  4.109E-01  2.304E+00  3.677E-04  0.000E+00  3.349E-04
   1    4   93     1    93    2.6861E-01  3.3480E-04   2.6828E-01  0.000E+00  0.000E+00  0.000E+00  1.12661E+02  4.107E-01  2.304E+00  3.676E-04  0.000E+00  3.348E-04
   1    4   94     1    94    2.6828E-01  3.3467E-04   2.6795E-01  0.000E+00  0.000E+00  0.000E+00  1.12360E+02  4.105E-01  2.304E+00  3.676E-04  0.000E+00  3.347E-04
   1    4   95     1    95    2.6795E-01  3.3453E-04   2.6761E-01  0.000E+00  0.000E+00  0.000E+00  1.12060E+02  4.103E-01  2.303E+00  3.675E-04  0.000E+00  3.345E-04
   1    4   96     1    96    2.6761E-01  3.3440E-04   2.6728E-01  0.000E+00  0.000E+00  0.000E+00  1.11760E+02  4.101E-01  2.303E+00  3.674E-04  0.000E+00  3.344E-04
   1    4   97     1    97    2.6728E-01  3.3426E-04   2.6694E-01  0.000E+00  0.000E+00  0.000E+00  1.11460E+02  4.099E-01  2.303E+00  3.674E-04  0.000E+00  3.343E-04
   1    4   98     1    98    2.6694E-01  3.3412E-04   2.6661E-01  0.000E+00  0.000E+00  0.000E+00  1.11160E+02  4.097E-01  2.303E+00  3.673E-04  0.000E+00  3.341E-04
   1    4   99     1    99    2.6661E-01  3.3399E-04   2.6627E-01  0.000E+00  0.000E+00  0.000E+00  1.10859E+02  4.095E-01  2.302E+00  3.672E-04  0.000E+00  3.340E-04
   1    4  100     1   100    2.6627E-01  3.3385E-04   2.6594E-01  0.000E+00  0.000E+00  0.000E+00  1.10559E+02  4.093E-01  2.302E+00  3.672E-04  0.000E+00  3.339E-04



1
  VOLUMETRIC BUDGET FOR UNSATURATED ZONE BENEATH STREAMS AT END OF TIME STEP  30 STRESS PERIOD   1
  ------------------------------------------------------------------------------------------------

    CUMULATIVE VOLUMES             L**3    RATES FOR THIS TIME STEP         L**3/T
    ------------------                     ------------------------


          STREAM LOSS =        88283.1250            STREAM LOSS =        3.4060E-02
    CHANGE IN STORAGE =        88283.1328      CHANGE IN STORAGE =        3.4060E-02
       RECHARGE TO GW =            0.0000         RECHARGE TO GW =            0.0000

             TOTAL IN =        88283.1250               TOTAL IN =        3.4060E-02

            TOTAL OUT =        88283.1328              TOTAL OUT =        3.4060E-02

             IN - OUT =       -7.8125E-03               IN - OUT =            0.0000

  PERCENT DISCREPANCY =            0.00      PERCENT DISCREPANCY =             0.00



1
              HEAD IN LAYER   1 AT END OF TIME STEP  30 IN STRESS PERIOD    1
  ---------------------------------------------------------------------------

          1      2      3      4      5      6      7      8      9     10
         11     12     13     14     15     16     17     18     19     20
         21     22     23     24     25     26     27     28     29     30
         31     32     33     34     35     36     37     38     39     40
         41     42     43     44     45     46     47     48     49     50
         51     52     53     54     55     56     57     58     59     60
         61     62     63     64     65     66     67     68     69     70
         71     72     73     74     75     76     77     78     79     80
         81     82     83     84     85     86     87     88     89     90
         91     92     93     94     95     96     97     98     99    100
 .........................................................................
   1   104.0  104.0  104.0  104.0  104.0  104.0  104.0  104.0  104.0  104.0
       104.0  104.0  104.0  104.0  104.0  104.0  104.0  104.0  104.0  104.0
       104.0  104.0  104.0  104.0  104.0  104.0  104.0  104.0  104.0  104.0
       104.0  104.0  104.0  104.0  104.0  104.0  104.0  104.0  104.0  104.0
       104.0  104.0  104.0  104.0  104.0  104.0  104.0  104.0  104.0  104.0
       104.0  104.0  104.0  104.0  104.0  104.0  104.0  104.0  104.0  104.0
       104.0  104.0  104.0  104.0  104.0  104.0  104.0  104.0  104.0  104.0
       104.0  104.0  103.9  103.9  103.9  103.8  103.8  103.7  103.6  103.5
       103.3  103.2  102.9  102.6  102.3  101.8  101.3  100.6   99.8   98.8
        97.6   96.2   94.6   92.7   90.5   88.0   85.2   82.1   78.7   75.0
   2   104.0  104.0  104.0  104.0  104.0  104.0  104.0  104.0  104.0  104.0
       104.0  104.0  104.0  104.0  104.0  104.0  104.0  104.0  104.0  104.0
       104.0  104.0  104.0  104.0  104.0  104.0  104.0  104.0  104.0  104.0
       104.0  104.0  104.0  104.0  104.0  104.0  104.0  104.0  104.0  104.0
       104.0  104.0  104.0  104.0  104.0  104.0  104.0  104.0  104.0  104.0
       104.0  104.0  104.0  104.0  104.0  104.0  104.0  104.0  104.0  104.0
       104.0  104.0  104.0  104.0  104.0  104.0  104.0  104.0  104.0  104.0
       104.0  104.0  103.9  103.9  103.9  103.8  103.8  103.7  103.6  103.5
       103.3  103.2  102.9  102.6  102.3  101.8  101.3  100.6   99.8   98.8
        97.6   96.2   94.6   92.7   90.5   88.0   85.2   82.1   78.7   75.0
   3   104.0  104.0  104.0  104.0  104.0  104.0  104.0  104.0  104.0  104.0
       104.0  104.0  104.0  104.0  104.0  104.0  104.0  104.0  104.0  104.0
       104.0  104.0  104.0  104.0  104.0  104.0  104.0  104.0  104.0  104.0
       104.0  104.0  104.0  104.0  104.0  104.0  104.0  104.0  104.0  104.0
       104.0  104.0  104.0  104.0  104.0  104.0  104.0  104.0  104.0  104.0
       104.0  104.0  104.0  104.0  104.0  104.0  104.0  104.0  104.0  104.0
       104.0  104.0  104.0  104.0  104.0  104.0  104.0  104.0  104.0  104.0
       104.0  104.0  103.9  103.9  103.9  103.8  103.8  103.7  103.6  103.5
       103.3  103.2  102.9  102.6  102.3  101.8  101.3  100.6   99.8   98.8
        97.6   96.2   94.6   92.7   90.5   88.0   85.2   82.1   78.7   75.0
   4   104.0  104.0  104.0  104.0  104.0  104.0  104.0  104.0  104.0  104.0
       104.0  104.0  104.0  104.0  104.0  104.0  104.0  104.0  104.0  104.0
       104.0  104.0  104.0  104.0  104.0  104.0  104.0  104.0  104.0  104.0
       104.0  104.0  104.0  104.0  104.0  104.0  104.0  104.0  104.0  104.0
       104.0  104.0  104.0  104.0  104.0  104.0  104.0  104.0  104.0  104.0
       104.0  104.0  104.0  104.0  104.0  104.0  104.0  104.0  104.0  104.0
       104.0  104.0  104.0  104.0  104.0  104.0  104.0  104.0  104.0  104.0
       104.0  104.0  103.9  103.9  103.9  103.8  103.8  103.7  103.6  103.5
       103.3  103.2  102.9  102.6  102.3  101.8  101.3  100.6   99.8   98.8
        97.6   96.2   94.6   92.7   90.5   88.0   85.2   82.1   78.7   75.0
   5   104.0  104.0  104.0  104.0  104.0  104.0  104.0  104.0  104.0  104.0
       104.0  104.0  104.0  104.0  104.0  104.0  104.0  104.0  104.0  104.0
       104.0  104.0  104.0  104.0  104.0  104.0  104.0  104.0  104.0  104.0
       104.0  104.0  104.0  104.0  104.0  104.0  104.0  104.0  104.0  104.0
       104.0  104.0  104.0  104.0  104.0  104.0  104.0  104.0  104.0  104.0
       104.0  104.0  104.0  104.0  104.0  104.0  104.0  104.0  104.0  104.0
       104.0  104.0  104.0  104.0  104.0  104.0  104.0  104.0  104.0  104.0
       104.0  104.0  103.9  103.9  103.9  103.8  103.8  103.7  103.6  103.5
       103.3  103.2  102.9  102.6  102.3  101.8  101.3  100.6   99.8   98.8
        97.6   96.2   94.6   92.7   90.5   88.0   85.2   82.1   78.7   75.0
   6   104.0  104.0  104.0  104.0  104.0  104.0  104.0  104.0  104.0  104.0
       104.0  104.0  104.0  104.0  104.0  104.0  104.0  104.0  104.0  104.0
       104.0  104.0  104.0  104.0  104.0  104.0  104.0  104.0  104.0  104.0
       104.0  104.0  104.0  104.0  104.0  104.0  104.0  104.0  104.0  104.0
       104.0  104.0  104.0  104.0  104.0  104.0  104.0  104.0  104.0  104.0
       104.0  104.0  104.0  104.0  104.0  104.0  104.0  104.0  104.0  104.0
       104.0  104.0  104.0  104.0  104.0  104.0  104.0  104.0  104.0  104.0
       104.0  104.0  103.9  103.9  103.9  103.8  103.8  103.7  103.6  103.5
       103.3  103.2  102.9  102.6  102.3  101.8  101.3  100.6   99.8   98.8
        97.6   96.2   94.6   92.7   90.5   88.0   85.2   82.1   78.7   75.0
   7   104.0  104.0  104.0  104.0  104.0  104.0  104.0  104.0  104.0  104.0
       104.0  104.0  104.0  104.0  104.0  104.0  104.0  104.0  104.0  104.0
       104.0  104.0  104.0  104.0  104.0  104.0  104.0  104.0  104.0  104.0
       104.0  104.0  104.0  104.0  104.0  104.0  104.0  104.0  104.0  104.0
       104.0  104.0  104.0  104.0  104.0  104.0  104.0  104.0  104.0  104.0
       104.0  104.0  104.0  104.0  104.0  104.0  104.0  104.0  104.0  104.0
       104.0  104.0  104.0  104.0  104.0  104.0  104.0  104.0  104.0  104.0
       104.0  104.0  103.9  103.9  103.9  103.8  103.8  103.7  103.6  103.5
       103.3  103.2  102.9  102.6  102.3  101.8  101.3  100.6   99.8   98.8
        97.6   96.2   94.6   92.7   90.5   88.0   85.2   82.1   78.7   75.0
1
  VOLUMETRIC BUDGET FOR ENTIRE MODEL AT END OF TIME STEP 30 IN STRESS PERIOD   1
  ------------------------------------------------------------------------------

     CUMULATIVE VOLUMES      L**3       RATES FOR THIS TIME STEP      L**3/T
     ------------------                 ------------------------

           IN:                                      IN:
           ---                                      ---
             STORAGE =     3570894.2500               STORAGE =           0.6722
       CONSTANT HEAD =           0.0000         CONSTANT HEAD =           0.0000
     HEAD DEP BOUNDS =           0.0000       HEAD DEP BOUNDS =           0.0000
      STREAM LEAKAGE =           0.0000        STREAM LEAKAGE =           0.0000

            TOTAL IN =     3570894.2500              TOTAL IN =           0.6722

          OUT:                                     OUT:
          ----                                     ----
             STORAGE =          78.0863               STORAGE =       2.8332E-05
       CONSTANT HEAD =           0.0000         CONSTANT HEAD =           0.0000
     HEAD DEP BOUNDS =     3570823.0000       HEAD DEP BOUNDS =           0.6722
      STREAM LEAKAGE =           0.0000        STREAM LEAKAGE =           0.0000

           TOTAL OUT =     3570901.0000             TOTAL OUT =           0.6722

            IN - OUT =          -6.7500              IN - OUT =      -1.2517E-06

 PERCENT DISCREPANCY =           0.00     PERCENT DISCREPANCY =           0.00






          TIME SUMMARY AT END OF TIME STEP  30 IN STRESS PERIOD    1
                    SECONDS     MINUTES      HOURS       DAYS        YEARS
                    -----------------------------------------------------------
   TIME STEP LENGTH 2.49961E+05  4166.0      69.434      2.8931     7.92080E-03
 STRESS PERIOD TIME 2.59200E+06  43200.      720.00      30.000     8.21355E-02
         TOTAL TIME 2.59200E+06  43200.      720.00      30.000     8.21355E-02
1
1
                            STRESS PERIOD NO.    2, LENGTH =   2592000.    
                            -----------------------------------------------

                              NUMBER OF TIME STEPS =    30

                               MULTIPLIER FOR DELT =     1.100

                            INITIAL TIME STEP SIZE =   15757.40    

 REUSING NON-PARAMETER GHB CELLS FROM LAST STRESS PERIOD

      7 GHB CELLS



 CLASSIFICATION & COUNT OF STREAM SEGMENTS BASED ON SOURCE OF INFLOW:

                HEADWATER     DIVERSION     RECEIVES TRIBUTARY FLOW
                ---------     ---------     -----------------------
                     1              0               0



                    INPUT DATA FOR EACH STREAM SEGMENT
 ---------------------------------------------------------------------------------------------

 SEGMENT    SEG.     INFLOW   OVERLAND   STREAM    STREAM   ICALC  OUTFLOW  DIVERSION PRIORITY
    NO.    LENGTH     RATE     RUNOFF      ET       PPT.    METH.  TO SEG.  FROM SEG.    NO.

      1  2.000E+04 2.533E+00 0.000E+00 0.000E+00 0.000E+00    2        0        0        0


         STREAMBED PROPERTIES AND STREAM DIMENSIONS

 SEGMENT     BED HYD. COND.      BED THICKNESS     ELEV.-TOP OF BED     WIDTH OF STREAM     DEPTH OF STREAM    STREAM ROUGHNESS
    No.     UPPER     LOWER     UPPER     LOWER     UPPER     LOWER     UPPER     LOWER     UPPER     LOWER   CHANNEL      BANK

     1  3.500E-07 3.500E-07                                                                                 3.000E-02 4.000E-02

  EIGHT POINT CROSS-SECTION DATA FOR SEGMENTS WITH ICALC = 2
    X VALUES X VALUES START FROM LEFT SIDE LOOKING DOWNSTREAM

     SEGMENT NO.        X1        X2        X3        X4        X5        X6        X7        X8
            1      0.000E+00 2.000E+00 4.000E+00 6.000E+00 8.000E+00 1.000E+01 1.200E+01 1.400E+01

    Z VALUES ARE RELATIVE TO STREAMBED ELEVATION

     SEGMENT NO.          Z1        Z2        Z3        Z4        Z5        Z6        Z7        Z8
            1      6.000E+00 4.500E+00 3.500E+00 0.000E+00 3.000E-01 3.500E+00 4.500E+00 6.000E+00



 
 SOLVING FOR HEAD 

 NO OUTPUT CONTROL FOR STRESS PERIOD    2   TIME STEP   1
 
 SOLVING FOR HEAD 

 NO OUTPUT CONTROL FOR STRESS PERIOD    2   TIME STEP   2
 
 SOLVING FOR HEAD 

 NO OUTPUT CONTROL FOR STRESS PERIOD    2   TIME STEP   3
 
 SOLVING FOR HEAD 

 NO OUTPUT CONTROL FOR STRESS PERIOD    2   TIME STEP   4
 
 SOLVING FOR HEAD 

 NO OUTPUT CONTROL FOR STRESS PERIOD    2   TIME STEP   5
 
 SOLVING FOR HEAD 

 NO OUTPUT CONTROL FOR STRESS PERIOD    2   TIME STEP   6
 
 SOLVING FOR HEAD 

 NO OUTPUT CONTROL FOR STRESS PERIOD    2   TIME STEP   7
 
 SOLVING FOR HEAD 

 NO OUTPUT CONTROL FOR STRESS PERIOD    2   TIME STEP   8
 
 SOLVING FOR HEAD 

 NO OUTPUT CONTROL FOR STRESS PERIOD    2   TIME STEP   9
 
 SOLVING FOR HEAD 

 NO OUTPUT CONTROL FOR STRESS PERIOD    2   TIME STEP  10
 
 SOLVING FOR HEAD 

 NO OUTPUT CONTROL FOR STRESS PERIOD    2   TIME STEP  11
 
 SOLVING FOR HEAD 

 NO OUTPUT CONTROL FOR STRESS PERIOD    2   TIME STEP  12
 
 SOLVING FOR HEAD 

 NO OUTPUT CONTROL FOR STRESS PERIOD    2   TIME STEP  13
 
 SOLVING FOR HEAD 

 NO OUTPUT CONTROL FOR STRESS PERIOD    2   TIME STEP  14
 
 SOLVING FOR HEAD 

 NO OUTPUT CONTROL FOR STRESS PERIOD    2   TIME STEP  15
 
 SOLVING FOR HEAD 

 NO OUTPUT CONTROL FOR STRESS PERIOD    2   TIME STEP  16
 
 SOLVING FOR HEAD 

 NO OUTPUT CONTROL FOR STRESS PERIOD    2   TIME STEP  17
 
 SOLVING FOR HEAD 

 NO OUTPUT CONTROL FOR STRESS PERIOD    2   TIME STEP  18
 
 SOLVING FOR HEAD 

 NO OUTPUT CONTROL FOR STRESS PERIOD    2   TIME STEP  19
 
 SOLVING FOR HEAD 

 NO OUTPUT CONTROL FOR STRESS PERIOD    2   TIME STEP  20
 
 SOLVING FOR HEAD 

 NO OUTPUT CONTROL FOR STRESS PERIOD    2   TIME STEP  21
 
 SOLVING FOR HEAD 

 NO OUTPUT CONTROL FOR STRESS PERIOD    2   TIME STEP  22
 
 SOLVING FOR HEAD 

 NO OUTPUT CONTROL FOR STRESS PERIOD    2   TIME STEP  23
 
 SOLVING FOR HEAD 

 NO OUTPUT CONTROL FOR STRESS PERIOD    2   TIME STEP  24
 
 SOLVING FOR HEAD 

 NO OUTPUT CONTROL FOR STRESS PERIOD    2   TIME STEP  25
 
 SOLVING FOR HEAD 

 NO OUTPUT CONTROL FOR STRESS PERIOD    2   TIME STEP  26
 
 SOLVING FOR HEAD 

 NO OUTPUT CONTROL FOR STRESS PERIOD    2   TIME STEP  27
 
 SOLVING FOR HEAD 

 NO OUTPUT CONTROL FOR STRESS PERIOD    2   TIME STEP  28
 
 SOLVING FOR HEAD 

 NO OUTPUT CONTROL FOR STRESS PERIOD    2   TIME STEP  29
 
 SOLVING FOR HEAD 

 NO OUTPUT CONTROL FOR STRESS PERIOD    2   TIME STEP  30
1
  VOLUMETRIC BUDGET FOR UNSATURATED ZONE BENEATH STREAMS AT END OF TIME STEP  30 STRESS PERIOD   2
  ------------------------------------------------------------------------------------------------

    CUMULATIVE VOLUMES             L**3    RATES FOR THIS TIME STEP         L**3/T
    ------------------                     ------------------------


          STREAM LOSS =       355607.1875            STREAM LOSS =            0.1031
    CHANGE IN STORAGE =       283731.9062      CHANGE IN STORAGE =        3.8739E-02
       RECHARGE TO GW =        71875.0938         RECHARGE TO GW =        6.4395E-02

             TOTAL IN =       355607.1875               TOTAL IN =            0.1031

            TOTAL OUT =       355607.0000              TOTAL OUT =            0.1031

             IN - OUT =            0.1875               IN - OUT =       -7.4506E-09

  PERCENT DISCREPANCY =            0.00      PERCENT DISCREPANCY =             0.00



1
  VOLUMETRIC BUDGET FOR ENTIRE MODEL AT END OF TIME STEP 30 IN STRESS PERIOD   2
  ------------------------------------------------------------------------------

     CUMULATIVE VOLUMES      L**3       RATES FOR THIS TIME STEP      L**3/T
     ------------------                 ------------------------

           IN:                                      IN:
           ---                                      ---
             STORAGE =     4967152.0000               STORAGE =           0.4515
       CONSTANT HEAD =           0.0000         CONSTANT HEAD =           0.0000
     HEAD DEP BOUNDS =           0.0000       HEAD DEP BOUNDS =           0.0000
      STREAM LEAKAGE =       71875.1016        STREAM LEAKAGE =       6.4395E-02

            TOTAL IN =     5039027.0000              TOTAL IN =           0.5159

          OUT:                                     OUT:
          ----                                     ----
             STORAGE =       24229.0723               STORAGE =       3.1646E-02
       CONSTANT HEAD =           0.0000         CONSTANT HEAD =           0.0000
     HEAD DEP BOUNDS =     5014773.0000       HEAD DEP BOUNDS =           0.4841
      STREAM LEAKAGE =           0.0000        STREAM LEAKAGE =           0.0000

           TOTAL OUT =     5039002.0000             TOTAL OUT =           0.5158

            IN - OUT =          25.0000              IN - OUT =       8.7738E-05

 PERCENT DISCREPANCY =           0.00     PERCENT DISCREPANCY =           0.02






          TIME SUMMARY AT END OF TIME STEP  30 IN STRESS PERIOD    2
                    SECONDS     MINUTES      HOURS       DAYS        YEARS
                    -----------------------------------------------------------
   TIME STEP LENGTH 2.49961E+05  4166.0      69.434      2.8931     7.92080E-03
 STRESS PERIOD TIME 2.59200E+06  43200.      720.00      30.000     8.21355E-02
         TOTAL TIME 5.18400E+06  86400.      1440.0      60.000     0.16427    
1
1
                            STRESS PERIOD NO.    3, LENGTH =   2592000.    
                            -----------------------------------------------

                              NUMBER OF TIME STEPS =    30

                               MULTIPLIER FOR DELT =     1.100

                            INITIAL TIME STEP SIZE =   15757.40    

 REUSING NON-PARAMETER GHB CELLS FROM LAST STRESS PERIOD

      7 GHB CELLS



 CLASSIFICATION & COUNT OF STREAM SEGMENTS BASED ON SOURCE OF INFLOW:

                HEADWATER     DIVERSION     RECEIVES TRIBUTARY FLOW
                ---------     ---------     -----------------------
                     1              0               0



                    INPUT DATA FOR EACH STREAM SEGMENT
 ---------------------------------------------------------------------------------------------

 SEGMENT    SEG.     INFLOW   OVERLAND   STREAM    STREAM   ICALC  OUTFLOW  DIVERSION PRIORITY
    NO.    LENGTH     RATE     RUNOFF      ET       PPT.    METH.  TO SEG.  FROM SEG.    NO.

      1  2.000E+04 3.840E+00 0.000E+00 0.000E+00 0.000E+00    2        0        0        0


         STREAMBED PROPERTIES AND STREAM DIMENSIONS

 SEGMENT     BED HYD. COND.      BED THICKNESS     ELEV.-TOP OF BED     WIDTH OF STREAM     DEPTH OF STREAM    STREAM ROUGHNESS
    No.     UPPER     LOWER     UPPER     LOWER     UPPER     LOWER     UPPER     LOWER     UPPER     LOWER   CHANNEL      BANK

     1  3.500E-07 3.500E-07                                                                                 3.000E-02 4.000E-02

  EIGHT POINT CROSS-SECTION DATA FOR SEGMENTS WITH ICALC = 2
    X VALUES X VALUES START FROM LEFT SIDE LOOKING DOWNSTREAM

     SEGMENT NO.        X1        X2        X3        X4        X5        X6        X7        X8
            1      0.000E+00 2.000E+00 4.000E+00 6.000E+00 8.000E+00 1.000E+01 1.200E+01 1.400E+01

    Z VALUES ARE RELATIVE TO STREAMBED ELEVATION

     SEGMENT NO.          Z1        Z2        Z3        Z4        Z5        Z6        Z7        Z8
            1      6.000E+00 4.500E+00 3.500E+00 0.000E+00 3.000E-01 3.500E+00 4.500E+00 6.000E+00



 
 SOLVING FOR HEAD 

 NO OUTPUT CONTROL FOR STRESS PERIOD    3   TIME STEP   1
 
 SOLVING FOR HEAD 

 NO OUTPUT CONTROL FOR STRESS PERIOD    3   TIME STEP   2
 
 SOLVING FOR HEAD 

 NO OUTPUT CONTROL FOR STRESS PERIOD    3   TIME STEP   3
 
 SOLVING FOR HEAD 

 NO OUTPUT CONTROL FOR STRESS PERIOD    3   TIME STEP   4
 
 SOLVING FOR HEAD 

 NO OUTPUT CONTROL FOR STRESS PERIOD    3   TIME STEP   5
 
 SOLVING FOR HEAD 

 NO OUTPUT CONTROL FOR STRESS PERIOD    3   TIME STEP   6
 
 SOLVING FOR HEAD 

 NO OUTPUT CONTROL FOR STRESS PERIOD    3   TIME STEP   7
 
 SOLVING FOR HEAD 

 NO OUTPUT CONTROL FOR STRESS PERIOD    3   TIME STEP   8
 
 SOLVING FOR HEAD 

 NO OUTPUT CONTROL FOR STRESS PERIOD    3   TIME STEP   9
 
 SOLVING FOR HEAD 

 NO OUTPUT CONTROL FOR STRESS PERIOD    3   TIME STEP  10
 
 SOLVING FOR HEAD 

 NO OUTPUT CONTROL FOR STRESS PERIOD    3   TIME STEP  11
 
 SOLVING FOR HEAD 

 NO OUTPUT CONTROL FOR STRESS PERIOD    3   TIME STEP  12
 
 SOLVING FOR HEAD 

 NO OUTPUT CONTROL FOR STRESS PERIOD    3   TIME STEP  13
 
 SOLVING FOR HEAD 

 NO OUTPUT CONTROL FOR STRESS PERIOD    3   TIME STEP  14
 
 SOLVING FOR HEAD 

 NO OUTPUT CONTROL FOR STRESS PERIOD    3   TIME STEP  15
 
 SOLVING FOR HEAD 

 NO OUTPUT CONTROL FOR STRESS PERIOD    3   TIME STEP  16
 
 SOLVING FOR HEAD 

 NO OUTPUT CONTROL FOR STRESS PERIOD    3   TIME STEP  17
 
 SOLVING FOR HEAD 

 NO OUTPUT CONTROL FOR STRESS PERIOD    3   TIME STEP  18
 
 SOLVING FOR HEAD 

 NO OUTPUT CONTROL FOR STRESS PERIOD    3   TIME STEP  19
 
 SOLVING FOR HEAD 

 NO OUTPUT CONTROL FOR STRESS PERIOD    3   TIME STEP  20
 
 SOLVING FOR HEAD 

 NO OUTPUT CONTROL FOR STRESS PERIOD    3   TIME STEP  21
 
 SOLVING FOR HEAD 

 NO OUTPUT CONTROL FOR STRESS PERIOD    3   TIME STEP  22
 
 SOLVING FOR HEAD 

 NO OUTPUT CONTROL FOR STRESS PERIOD    3   TIME STEP  23
 
 SOLVING FOR HEAD 

 NO OUTPUT CONTROL FOR STRESS PERIOD    3   TIME STEP  24
 
 SOLVING FOR HEAD 

 NO OUTPUT CONTROL FOR STRESS PERIOD    3   TIME STEP  25
 
 SOLVING FOR HEAD 

 NO OUTPUT CONTROL FOR STRESS PERIOD    3   TIME STEP  26
 
 SOLVING FOR HEAD 

 NO OUTPUT CONTROL FOR STRESS PERIOD    3   TIME STEP  27
 
 SOLVING FOR HEAD 

 NO OUTPUT CONTROL FOR STRESS PERIOD    3   TIME STEP  28
 
 SOLVING FOR HEAD 

 NO OUTPUT CONTROL FOR STRESS PERIOD    3   TIME STEP  29
 
 SOLVING FOR HEAD 

 NO OUTPUT CONTROL FOR STRESS PERIOD    3   TIME STEP  30
1
  VOLUMETRIC BUDGET FOR UNSATURATED ZONE BENEATH STREAMS AT END OF TIME STEP  30 STRESS PERIOD   3
  ------------------------------------------------------------------------------------------------

    CUMULATIVE VOLUMES             L**3    RATES FOR THIS TIME STEP         L**3/T
    ------------------                     ------------------------


          STREAM LOSS =       715423.7500            STREAM LOSS =            0.1388
    CHANGE IN STORAGE =       332069.8125      CHANGE IN STORAGE =        1.5991E-03
       RECHARGE TO GW =       383353.2188         RECHARGE TO GW =            0.1372

             TOTAL IN =       715423.7500               TOTAL IN =            0.1388

            TOTAL OUT =       715423.0000              TOTAL OUT =            0.1388

             IN - OUT =            0.7500               IN - OUT =       -1.4901E-08

  PERCENT DISCREPANCY =            0.00      PERCENT DISCREPANCY =             0.00



1
  VOLUMETRIC BUDGET FOR ENTIRE MODEL AT END OF TIME STEP 30 IN STRESS PERIOD   3
  ------------------------------------------------------------------------------

     CUMULATIVE VOLUMES      L**3       RATES FOR THIS TIME STEP      L**3/T
     ------------------                 ------------------------

           IN:                                      IN:
           ---                                      ---
             STORAGE =     5978519.0000               STORAGE =           0.3504
       CONSTANT HEAD =           0.0000         CONSTANT HEAD =           0.0000
     HEAD DEP BOUNDS =           0.0000       HEAD DEP BOUNDS =           0.0000
      STREAM LEAKAGE =      383353.3438        STREAM LEAKAGE =           0.1372

            TOTAL IN =     6361872.5000              TOTAL IN =           0.4876

          OUT:                                     OUT:
          ----                                     ----
             STORAGE =      206819.5938               STORAGE =       8.0289E-02
       CONSTANT HEAD =           0.0000         CONSTANT HEAD =           0.0000
     HEAD DEP BOUNDS =     6154954.0000       HEAD DEP BOUNDS =           0.4073
      STREAM LEAKAGE =           0.0000        STREAM LEAKAGE =           0.0000

           TOTAL OUT =     6361773.5000             TOTAL OUT =           0.4876

            IN - OUT =          99.0000              IN - OUT =      -4.2021E-06

 PERCENT DISCREPANCY =           0.00     PERCENT DISCREPANCY =           0.00






          TIME SUMMARY AT END OF TIME STEP  30 IN STRESS PERIOD    3
                    SECONDS     MINUTES      HOURS       DAYS        YEARS
                    -----------------------------------------------------------
   TIME STEP LENGTH 2.49961E+05  4166.0      69.434      2.8931     7.92080E-03
 STRESS PERIOD TIME 2.59200E+06  43200.      720.00      30.000     8.21355E-02
         TOTAL TIME 7.77600E+06 1.29600E+05  2160.0      90.000     0.24641    
1
1
                            STRESS PERIOD NO.    4, LENGTH =   2592000.    
                            -----------------------------------------------

                              NUMBER OF TIME STEPS =    30

                               MULTIPLIER FOR DELT =     1.100

                            INITIAL TIME STEP SIZE =   15757.40    

 REUSING NON-PARAMETER GHB CELLS FROM LAST STRESS PERIOD

      7 GHB CELLS



 CLASSIFICATION & COUNT OF STREAM SEGMENTS BASED ON SOURCE OF INFLOW:

                HEADWATER     DIVERSION     RECEIVES TRIBUTARY FLOW
                ---------     ---------     -----------------------
                     1              0               0



                    INPUT DATA FOR EACH STREAM SEGMENT
 ---------------------------------------------------------------------------------------------

 SEGMENT    SEG.     INFLOW   OVERLAND   STREAM    STREAM   ICALC  OUTFLOW  DIVERSION PRIORITY
    NO.    LENGTH     RATE     RUNOFF      ET       PPT.    METH.  TO SEG.  FROM SEG.    NO.

      1  2.000E+04 1.785E+01 0.000E+00 0.000E+00 0.000E+00    2        0        0        0


         STREAMBED PROPERTIES AND STREAM DIMENSIONS

 SEGMENT     BED HYD. COND.      BED THICKNESS     ELEV.-TOP OF BED     WIDTH OF STREAM     DEPTH OF STREAM    STREAM ROUGHNESS
    No.     UPPER     LOWER     UPPER     LOWER     UPPER     LOWER     UPPER     LOWER     UPPER     LOWER   CHANNEL      BANK

     1  3.500E-07 3.500E-07                                                                                 3.000E-02 4.000E-02

  EIGHT POINT CROSS-SECTION DATA FOR SEGMENTS WITH ICALC = 2
    X VALUES X VALUES START FROM LEFT SIDE LOOKING DOWNSTREAM

     SEGMENT NO.        X1        X2        X3        X4        X5        X6        X7        X8
            1      0.000E+00 2.000E+00 4.000E+00 6.000E+00 8.000E+00 1.000E+01 1.200E+01 1.400E+01

    Z VALUES ARE RELATIVE TO STREAMBED ELEVATION

     SEGMENT NO.          Z1        Z2        Z3        Z4        Z5        Z6        Z7        Z8
            1      6.000E+00 4.500E+00 3.500E+00 0.000E+00 3.000E-01 3.500E+00 4.500E+00 6.000E+00



 
 SOLVING FOR HEAD 

 NO OUTPUT CONTROL FOR STRESS PERIOD    4   TIME STEP   1
 
 SOLVING FOR HEAD 

 NO OUTPUT CONTROL FOR STRESS PERIOD    4   TIME STEP   2
 
 SOLVING FOR HEAD 

 NO OUTPUT CONTROL FOR STRESS PERIOD    4   TIME STEP   3
 
 SOLVING FOR HEAD 

 NO OUTPUT CONTROL FOR STRESS PERIOD    4   TIME STEP   4
 
 SOLVING FOR HEAD 

 NO OUTPUT CONTROL FOR STRESS PERIOD    4   TIME STEP   5
 
 SOLVING FOR HEAD 

 NO OUTPUT CONTROL FOR STRESS PERIOD    4   TIME STEP   6
 
 SOLVING FOR HEAD 

 NO OUTPUT CONTROL FOR STRESS PERIOD    4   TIME STEP   7
 
 SOLVING FOR HEAD 

 NO OUTPUT CONTROL FOR STRESS PERIOD    4   TIME STEP   8
 
 SOLVING FOR HEAD 

 NO OUTPUT CONTROL FOR STRESS PERIOD    4   TIME STEP   9
 
 SOLVING FOR HEAD 

 NO OUTPUT CONTROL FOR STRESS PERIOD    4   TIME STEP  10
 
 SOLVING FOR HEAD 

 NO OUTPUT CONTROL FOR STRESS PERIOD    4   TIME STEP  11
 
 SOLVING FOR HEAD 

 NO OUTPUT CONTROL FOR STRESS PERIOD    4   TIME STEP  12
 
 SOLVING FOR HEAD 

 NO OUTPUT CONTROL FOR STRESS PERIOD    4   TIME STEP  13
 
 SOLVING FOR HEAD 

 NO OUTPUT CONTROL FOR STRESS PERIOD    4   TIME STEP  14
 
 SOLVING FOR HEAD 

 NO OUTPUT CONTROL FOR STRESS PERIOD    4   TIME STEP  15
 
 SOLVING FOR HEAD 

 NO OUTPUT CONTROL FOR STRESS PERIOD    4   TIME STEP  16
 
 SOLVING FOR HEAD 

 NO OUTPUT CONTROL FOR STRESS PERIOD    4   TIME STEP  17
 
 SOLVING FOR HEAD 

 NO OUTPUT CONTROL FOR STRESS PERIOD    4   TIME STEP  18
 
 SOLVING FOR HEAD 

 NO OUTPUT CONTROL FOR STRESS PERIOD    4   TIME STEP  19
 
 SOLVING FOR HEAD 

 NO OUTPUT CONTROL FOR STRESS PERIOD    4   TIME STEP  20
 
 SOLVING FOR HEAD 

 NO OUTPUT CONTROL FOR STRESS PERIOD    4   TIME STEP  21
 
 SOLVING FOR HEAD 

 NO OUTPUT CONTROL FOR STRESS PERIOD    4   TIME STEP  22
 
 SOLVING FOR HEAD 

 NO OUTPUT CONTROL FOR STRESS PERIOD    4   TIME STEP  23
 
 SOLVING FOR HEAD 

 NO OUTPUT CONTROL FOR STRESS PERIOD    4   TIME STEP  24
 
 SOLVING FOR HEAD 

 NO OUTPUT CONTROL FOR STRESS PERIOD    4   TIME STEP  25
 
 SOLVING FOR HEAD 

 NO OUTPUT CONTROL FOR STRESS PERIOD    4   TIME STEP  26
 
 SOLVING FOR HEAD 

 NO OUTPUT CONTROL FOR STRESS PERIOD    4   TIME STEP  27
 
 SOLVING FOR HEAD 

 NO OUTPUT CONTROL FOR STRESS PERIOD    4   TIME STEP  28
 
 SOLVING FOR HEAD 

 NO OUTPUT CONTROL FOR STRESS PERIOD    4   TIME STEP  29
 
 SOLVING FOR HEAD 

 NO OUTPUT CONTROL FOR STRESS PERIOD    4   TIME STEP  30
1
  VOLUMETRIC BUDGET FOR UNSATURATED ZONE BENEATH STREAMS AT END OF TIME STEP  30 STRESS PERIOD   4
  ------------------------------------------------------------------------------------------------

    CUMULATIVE VOLUMES             L**3    RATES FOR THIS TIME STEP         L**3/T
    ------------------                     ------------------------


          STREAM LOSS =      1935675.8750            STREAM LOSS =            0.4708
    CHANGE IN STORAGE =       713779.0000      CHANGE IN STORAGE =        5.3768E-02
       RECHARGE TO GW =      1221892.7500         RECHARGE TO GW =            0.4170

             TOTAL IN =      1935675.8750               TOTAL IN =            0.4708

            TOTAL OUT =      1935671.7500              TOTAL OUT =            0.4708

             IN - OUT =            4.1250               IN - OUT =       -5.9605E-08

  PERCENT DISCREPANCY =            0.00      PERCENT DISCREPANCY =             0.00



1
  VOLUMETRIC BUDGET FOR ENTIRE MODEL AT END OF TIME STEP 30 IN STRESS PERIOD   4
  ------------------------------------------------------------------------------

     CUMULATIVE VOLUMES      L**3       RATES FOR THIS TIME STEP      L**3/T
     ------------------                 ------------------------

           IN:                                      IN:
           ---                                      ---
             STORAGE =     6633353.0000               STORAGE =           0.2058
       CONSTANT HEAD =           0.0000         CONSTANT HEAD =           0.0000
     HEAD DEP BOUNDS =           0.0000       HEAD DEP BOUNDS =           0.0000
      STREAM LEAKAGE =     1221894.3750        STREAM LEAKAGE =           0.4170

            TOTAL IN =     7855247.5000              TOTAL IN =           0.6228

          OUT:                                     OUT:
          ----                                     ----
             STORAGE =      700455.5625               STORAGE =           0.2510
       CONSTANT HEAD =           0.0000         CONSTANT HEAD =           0.0000
     HEAD DEP BOUNDS =     7154645.0000       HEAD DEP BOUNDS =           0.3717
      STREAM LEAKAGE =           0.0000        STREAM LEAKAGE =           0.0000

           TOTAL OUT =     7855100.5000             TOTAL OUT =           0.6227

            IN - OUT =         147.0000              IN - OUT =       6.1750E-05

 PERCENT DISCREPANCY =           0.00     PERCENT DISCREPANCY =           0.01






          TIME SUMMARY AT END OF TIME STEP  30 IN STRESS PERIOD    4
                    SECONDS     MINUTES      HOURS       DAYS        YEARS
                    -----------------------------------------------------------
   TIME STEP LENGTH 2.49961E+05  4166.0      69.434      2.8931     7.92080E-03
 STRESS PERIOD TIME 2.59200E+06  43200.      720.00      30.000     8.21355E-02
         TOTAL TIME 1.03680E+07 1.72800E+05  2880.0      120.00     0.32854    
1
1
                            STRESS PERIOD NO.    5, LENGTH =   2592000.    
                            -----------------------------------------------

                              NUMBER OF TIME STEPS =    30

                               MULTIPLIER FOR DELT =     1.100

                            INITIAL TIME STEP SIZE =   15757.40    

 REUSING NON-PARAMETER GHB CELLS FROM LAST STRESS PERIOD

      7 GHB CELLS



 CLASSIFICATION & COUNT OF STREAM SEGMENTS BASED ON SOURCE OF INFLOW:

                HEADWATER     DIVERSION     RECEIVES TRIBUTARY FLOW
                ---------     ---------     -----------------------
                     1              0               0



                    INPUT DATA FOR EACH STREAM SEGMENT
 ---------------------------------------------------------------------------------------------

 SEGMENT    SEG.     INFLOW   OVERLAND   STREAM    STREAM   ICALC  OUTFLOW  DIVERSION PRIORITY
    NO.    LENGTH     RATE     RUNOFF      ET       PPT.    METH.  TO SEG.  FROM SEG.    NO.

      1  2.000E+04 2.026E+01 0.000E+00 0.000E+00 0.000E+00    2        0        0        0


         STREAMBED PROPERTIES AND STREAM DIMENSIONS

 SEGMENT     BED HYD. COND.      BED THICKNESS     ELEV.-TOP OF BED     WIDTH OF STREAM     DEPTH OF STREAM    STREAM ROUGHNESS
    No.     UPPER     LOWER     UPPER     LOWER     UPPER     LOWER     UPPER     LOWER     UPPER     LOWER   CHANNEL      BANK

     1  3.500E-07 3.500E-07                                                                                 3.000E-02 4.000E-02

  EIGHT POINT CROSS-SECTION DATA FOR SEGMENTS WITH ICALC = 2
    X VALUES X VALUES START FROM LEFT SIDE LOOKING DOWNSTREAM

     SEGMENT NO.        X1        X2        X3        X4        X5        X6        X7        X8
            1      0.000E+00 2.000E+00 4.000E+00 6.000E+00 8.000E+00 1.000E+01 1.200E+01 1.400E+01

    Z VALUES ARE RELATIVE TO STREAMBED ELEVATION

     SEGMENT NO.          Z1        Z2        Z3        Z4        Z5        Z6        Z7        Z8
            1      6.000E+00 4.500E+00 3.500E+00 0.000E+00 3.000E-01 3.500E+00 4.500E+00 6.000E+00



 
 SOLVING FOR HEAD 

 NO OUTPUT CONTROL FOR STRESS PERIOD    5   TIME STEP   1
 
 SOLVING FOR HEAD 

 NO OUTPUT CONTROL FOR STRESS PERIOD    5   TIME STEP   2
 
 SOLVING FOR HEAD 

 NO OUTPUT CONTROL FOR STRESS PERIOD    5   TIME STEP   3
 
 SOLVING FOR HEAD 

 NO OUTPUT CONTROL FOR STRESS PERIOD    5   TIME STEP   4
 
 SOLVING FOR HEAD 

 NO OUTPUT CONTROL FOR STRESS PERIOD    5   TIME STEP   5
 
 SOLVING FOR HEAD 

 NO OUTPUT CONTROL FOR STRESS PERIOD    5   TIME STEP   6
 
 SOLVING FOR HEAD 

 NO OUTPUT CONTROL FOR STRESS PERIOD    5   TIME STEP   7
 
 SOLVING FOR HEAD 

 NO OUTPUT CONTROL FOR STRESS PERIOD    5   TIME STEP   8
 
 SOLVING FOR HEAD 

 NO OUTPUT CONTROL FOR STRESS PERIOD    5   TIME STEP   9
 
 SOLVING FOR HEAD 

 NO OUTPUT CONTROL FOR STRESS PERIOD    5   TIME STEP  10
 
 SOLVING FOR HEAD 

 NO OUTPUT CONTROL FOR STRESS PERIOD    5   TIME STEP  11
 
 SOLVING FOR HEAD 

 NO OUTPUT CONTROL FOR STRESS PERIOD    5   TIME STEP  12
 
 SOLVING FOR HEAD 

 NO OUTPUT CONTROL FOR STRESS PERIOD    5   TIME STEP  13
 
 SOLVING FOR HEAD 

 NO OUTPUT CONTROL FOR STRESS PERIOD    5   TIME STEP  14
 
 SOLVING FOR HEAD 

 NO OUTPUT CONTROL FOR STRESS PERIOD    5   TIME STEP  15
 
 SOLVING FOR HEAD 

 NO OUTPUT CONTROL FOR STRESS PERIOD    5   TIME STEP  16
 
 SOLVING FOR HEAD 

 NO OUTPUT CONTROL FOR STRESS PERIOD    5   TIME STEP  17
 
 SOLVING FOR HEAD 

 NO OUTPUT CONTROL FOR STRESS PERIOD    5   TIME STEP  18
 
 SOLVING FOR HEAD 

 NO OUTPUT CONTROL FOR STRESS PERIOD    5   TIME STEP  19
 
 SOLVING FOR HEAD 

 NO OUTPUT CONTROL FOR STRESS PERIOD    5   TIME STEP  20
 
 SOLVING FOR HEAD 

 NO OUTPUT CONTROL FOR STRESS PERIOD    5   TIME STEP  21
 
 SOLVING FOR HEAD 

 NO OUTPUT CONTROL FOR STRESS PERIOD    5   TIME STEP  22
 
 SOLVING FOR HEAD 

 NO OUTPUT CONTROL FOR STRESS PERIOD    5   TIME STEP  23
 
 SOLVING FOR HEAD 

 NO OUTPUT CONTROL FOR STRESS PERIOD    5   TIME STEP  24
 
 SOLVING FOR HEAD 

 NO OUTPUT CONTROL FOR STRESS PERIOD    5   TIME STEP  25
 
 SOLVING FOR HEAD 

 NO OUTPUT CONTROL FOR STRESS PERIOD    5   TIME STEP  26
 
 SOLVING FOR HEAD 

 NO OUTPUT CONTROL FOR STRESS PERIOD    5   TIME STEP  27
 
 SOLVING FOR HEAD 

 NO OUTPUT CONTROL FOR STRESS PERIOD    5   TIME STEP  28
 
 SOLVING FOR HEAD 

 NO OUTPUT CONTROL FOR STRESS PERIOD    5   TIME STEP  29
 
 SOLVING FOR HEAD 

 OUTPUT CONTROL FOR STRESS PERIOD    5   TIME STEP  30
    PRINT HEAD FOR ALL LAYERS
    PRINT BUDGET
    SAVE BUDGET

  HEAD DEP BOUNDS   PERIOD    5   STEP  30
 BOUNDARY      1   LAYER   1   ROW     1   COL   100   RATE   -5.152737E-02
 BOUNDARY      2   LAYER   1   ROW     2   COL   100   RATE   -5.162405E-02
 BOUNDARY      3   LAYER   1   ROW     3   COL   100   RATE   -5.143355E-02
 BOUNDARY      4   LAYER   1   ROW     4   COL   100   RATE   -4.005324E-02
 BOUNDARY      5   LAYER   1   ROW     5   COL   100   RATE   -5.143355E-02
 BOUNDARY      6   LAYER   1   ROW     6   COL   100   RATE   -5.162404E-02
 BOUNDARY      7   LAYER   1   ROW     7   COL   100   RATE   -5.152737E-02



 STREAM LISTING     PERIOD      5   STEP       30

 LAYER ROW COL. STREAM  RCH.   FLOW INTO    STREAM     FLOW OUT OF   OVRLND.    DIRECT     STREAM      STREAM      STREAM     STREAM  STREAMBED   FLOW TO   CHNG. UNSAT. 
                SEG.NO.  NO.   STRM. RCH.    LOSS       STRM. RCH.   RUNOFF     PRECIP       ET         HEAD        DEPTH      WIDTH  CONDCTNC.   WAT. TAB.   STORAGE

   1    4    1     1     1    2.0260E+01  5.2848E-03   2.0255E+01  0.000E+00  0.000E+00  0.000E+00  1.43268E+02  3.418E+00  5.902E+00  1.349E-03  5.234E-03  5.124E-05
   1    4    2     1     2    2.0255E+01  5.2837E-03   2.0249E+01  0.000E+00  0.000E+00  0.000E+00  1.42967E+02  3.417E+00  5.901E+00  1.349E-03  5.351E-03 -6.686E-05
   1    4    3     1     3    2.0249E+01  5.2825E-03   2.0244E+01  0.000E+00  0.000E+00  0.000E+00  1.42667E+02  3.417E+00  5.901E+00  1.349E-03  5.366E-03 -8.386E-05
   1    4    4     1     4    2.0244E+01  5.2814E-03   2.0239E+01  0.000E+00  0.000E+00  0.000E+00  1.42366E+02  3.416E+00  5.900E+00  1.349E-03  5.365E-03 -8.324E-05
   1    4    5     1     5    2.0239E+01  5.2803E-03   2.0234E+01  0.000E+00  0.000E+00  0.000E+00  1.42066E+02  3.416E+00  5.899E+00  1.348E-03  5.363E-03 -8.256E-05
   1    4    6     1     6    2.0234E+01  5.2791E-03   2.0228E+01  0.000E+00  0.000E+00  0.000E+00  1.41766E+02  3.416E+00  5.899E+00  1.348E-03  5.361E-03 -8.188E-05
   1    4    7     1     7    2.0228E+01  5.2780E-03   2.0223E+01  0.000E+00  0.000E+00  0.000E+00  1.41465E+02  3.415E+00  5.898E+00  1.348E-03  5.359E-03 -8.118E-05
   1    4    8     1     8    2.0223E+01  5.2768E-03   2.0218E+01  0.000E+00  0.000E+00  0.000E+00  1.41165E+02  3.415E+00  5.898E+00  1.348E-03  5.357E-03 -8.048E-05
   1    4    9     1     9    2.0218E+01  5.2757E-03   2.0212E+01  0.000E+00  0.000E+00  0.000E+00  1.40864E+02  3.414E+00  5.897E+00  1.348E-03  5.356E-03 -7.981E-05
   1    4   10     1    10    2.0212E+01  5.2746E-03   2.0207E+01  0.000E+00  0.000E+00  0.000E+00  1.40564E+02  3.414E+00  5.897E+00  1.348E-03  5.354E-03 -7.962E-05
   1    4   11     1    11    2.0207E+01  5.2734E-03   2.0202E+01  0.000E+00  0.000E+00  0.000E+00  1.40263E+02  3.413E+00  5.896E+00  1.348E-03  5.353E-03 -7.956E-05
   1    4   12     1    12    2.0202E+01  5.2723E-03   2.0197E+01  0.000E+00  0.000E+00  0.000E+00  1.39963E+02  3.413E+00  5.896E+00  1.347E-03  5.352E-03 -7.949E-05
   1    4   13     1    13    2.0197E+01  5.2711E-03   2.0191E+01  0.000E+00  0.000E+00  0.000E+00  1.39663E+02  3.413E+00  5.895E+00  1.347E-03  5.351E-03 -7.939E-05
   1    4   14     1    14    2.0191E+01  5.2700E-03   2.0186E+01  0.000E+00  0.000E+00  0.000E+00  1.39362E+02  3.412E+00  5.895E+00  1.347E-03  5.349E-03 -7.926E-05
   1    4   15     1    15    2.0186E+01  5.2689E-03   2.0181E+01  0.000E+00  0.000E+00  0.000E+00  1.39062E+02  3.412E+00  5.894E+00  1.347E-03  5.348E-03 -7.913E-05
   1    4   16     1    16    2.0181E+01  5.2677E-03   2.0176E+01  0.000E+00  0.000E+00  0.000E+00  1.38761E+02  3.411E+00  5.894E+00  1.347E-03  5.347E-03 -7.904E-05
   1    4   17     1    17    2.0176E+01  5.2666E-03   2.0170E+01  0.000E+00  0.000E+00  0.000E+00  1.38461E+02  3.411E+00  5.893E+00  1.347E-03  5.346E-03 -7.898E-05
   1    4   18     1    18    2.0170E+01  5.2654E-03   2.0165E+01  0.000E+00  0.000E+00  0.000E+00  1.38160E+02  3.410E+00  5.893E+00  1.347E-03  5.344E-03 -7.893E-05
   1    4   19     1    19    2.0165E+01  5.2643E-03   2.0160E+01  0.000E+00  0.000E+00  0.000E+00  1.37860E+02  3.410E+00  5.892E+00  1.346E-03  5.343E-03 -7.888E-05
   1    4   20     1    20    2.0160E+01  5.2632E-03   2.0155E+01  0.000E+00  0.000E+00  0.000E+00  1.37559E+02  3.409E+00  5.892E+00  1.346E-03  5.342E-03 -7.882E-05
   1    4   21     1    21    2.0155E+01  5.2620E-03   2.0149E+01  0.000E+00  0.000E+00  0.000E+00  1.37259E+02  3.409E+00  5.891E+00  1.346E-03  5.341E-03 -7.875E-05
   1    4   22     1    22    2.0149E+01  5.2609E-03   2.0144E+01  0.000E+00  0.000E+00  0.000E+00  1.36959E+02  3.409E+00  5.891E+00  1.346E-03  5.340E-03 -7.870E-05
   1    4   23     1    23    2.0144E+01  5.2598E-03   2.0139E+01  0.000E+00  0.000E+00  0.000E+00  1.36658E+02  3.408E+00  5.890E+00  1.346E-03  5.338E-03 -7.865E-05
   1    4   24     1    24    2.0139E+01  5.2586E-03   2.0133E+01  0.000E+00  0.000E+00  0.000E+00  1.36358E+02  3.408E+00  5.890E+00  1.346E-03  5.337E-03 -7.860E-05
   1    4   25     1    25    2.0133E+01  5.2575E-03   2.0128E+01  0.000E+00  0.000E+00  0.000E+00  1.36057E+02  3.407E+00  5.889E+00  1.346E-03  5.336E-03 -7.854E-05
   1    4   26     1    26    2.0128E+01  5.2563E-03   2.0123E+01  0.000E+00  0.000E+00  0.000E+00  1.35757E+02  3.407E+00  5.889E+00  1.345E-03  5.335E-03 -7.849E-05
   1    4   27     1    27    2.0123E+01  5.2552E-03   2.0118E+01  0.000E+00  0.000E+00  0.000E+00  1.35456E+02  3.406E+00  5.888E+00  1.345E-03  5.334E-03 -7.842E-05
   1    4   28     1    28    2.0118E+01  5.2541E-03   2.0112E+01  0.000E+00  0.000E+00  0.000E+00  1.35156E+02  3.406E+00  5.888E+00  1.345E-03  5.332E-03 -7.836E-05
   1    4   29     1    29    2.0112E+01  5.2529E-03   2.0107E+01  0.000E+00  0.000E+00  0.000E+00  1.34856E+02  3.406E+00  5.887E+00  1.345E-03  5.331E-03 -7.829E-05
   1    4   30     1    30    2.0107E+01  5.2518E-03   2.0102E+01  0.000E+00  0.000E+00  0.000E+00  1.34555E+02  3.405E+00  5.887E+00  1.345E-03  5.330E-03 -7.821E-05
   1    4   31     1    31    2.0102E+01  5.2507E-03   2.0097E+01  0.000E+00  0.000E+00  0.000E+00  1.34255E+02  3.405E+00  5.886E+00  1.345E-03  5.329E-03 -7.812E-05
   1    4   32     1    32    2.0097E+01  5.2495E-03   2.0091E+01  0.000E+00  0.000E+00  0.000E+00  1.33954E+02  3.404E+00  5.885E+00  1.345E-03  5.328E-03 -7.803E-05
   1    4   33     1    33    2.0091E+01  5.2484E-03   2.0086E+01  0.000E+00  0.000E+00  0.000E+00  1.33654E+02  3.404E+00  5.885E+00  1.344E-03  5.326E-03 -7.791E-05
   1    4   34     1    34    2.0086E+01  5.2473E-03   2.0081E+01  0.000E+00  0.000E+00  0.000E+00  1.33353E+02  3.403E+00  5.884E+00  1.344E-03  5.325E-03 -7.778E-05
   1    4   35     1    35    2.0081E+01  5.2461E-03   2.0076E+01  0.000E+00  0.000E+00  0.000E+00  1.33053E+02  3.403E+00  5.884E+00  1.344E-03  5.324E-03 -7.763E-05
   1    4   36     1    36    2.0076E+01  5.2450E-03   2.0070E+01  0.000E+00  0.000E+00  0.000E+00  1.32753E+02  3.403E+00  5.883E+00  1.344E-03  5.322E-03 -7.745E-05
   1    4   37     1    37    2.0070E+01  5.2439E-03   2.0065E+01  0.000E+00  0.000E+00  0.000E+00  1.32452E+02  3.402E+00  5.883E+00  1.344E-03  5.321E-03 -7.725E-05
   1    4   38     1    38    2.0065E+01  5.2427E-03   2.0060E+01  0.000E+00  0.000E+00  0.000E+00  1.32152E+02  3.402E+00  5.882E+00  1.344E-03  5.320E-03 -7.701E-05
   1    4   39     1    39    2.0060E+01  5.2416E-03   2.0055E+01  0.000E+00  0.000E+00  0.000E+00  1.31851E+02  3.401E+00  5.882E+00  1.344E-03  5.318E-03 -7.673E-05
   1    4   40     1    40    2.0055E+01  5.2405E-03   2.0049E+01  0.000E+00  0.000E+00  0.000E+00  1.31551E+02  3.401E+00  5.881E+00  1.343E-03  5.317E-03 -7.640E-05
   1    4   41     1    41    2.0049E+01  5.2393E-03   2.0044E+01  0.000E+00  0.000E+00  0.000E+00  1.31250E+02  3.400E+00  5.881E+00  1.343E-03  5.315E-03 -7.602E-05
   1    4   42     1    42    2.0044E+01  5.2382E-03   2.0039E+01  0.000E+00  0.000E+00  0.000E+00  1.30950E+02  3.400E+00  5.880E+00  1.343E-03  5.314E-03 -7.558E-05
   1    4   43     1    43    2.0039E+01  5.2371E-03   2.0034E+01  0.000E+00  0.000E+00  0.000E+00  1.30650E+02  3.400E+00  5.880E+00  1.343E-03  5.312E-03 -7.507E-05
   1    4   44     1    44    2.0034E+01  5.2359E-03   2.0029E+01  0.000E+00  0.000E+00  0.000E+00  1.30349E+02  3.399E+00  5.879E+00  1.343E-03  5.310E-03 -7.448E-05
   1    4   45     1    45    2.0029E+01  5.2348E-03   2.0023E+01  0.000E+00  0.000E+00  0.000E+00  1.30049E+02  3.399E+00  5.879E+00  1.343E-03  5.309E-03 -7.380E-05
   1    4   46     1    46    2.0023E+01  5.2337E-03   2.0018E+01  0.000E+00  0.000E+00  0.000E+00  1.29748E+02  3.398E+00  5.878E+00  1.343E-03  5.307E-03 -7.302E-05
   1    4   47     1    47    2.0018E+01  5.2325E-03   2.0013E+01  0.000E+00  0.000E+00  0.000E+00  1.29448E+02  3.398E+00  5.878E+00  1.342E-03  5.305E-03 -7.211E-05
   1    4   48     1    48    2.0013E+01  5.2314E-03   2.0008E+01  0.000E+00  0.000E+00  0.000E+00  1.29147E+02  3.397E+00  5.877E+00  1.342E-03  5.302E-03 -7.108E-05
   1    4   49     1    49    2.0008E+01  5.2303E-03   2.0002E+01  0.000E+00  0.000E+00  0.000E+00  1.28847E+02  3.397E+00  5.877E+00  1.342E-03  5.300E-03 -6.991E-05
   1    4   50     1    50    2.0002E+01  5.2291E-03   1.9997E+01  0.000E+00  0.000E+00  0.000E+00  1.28546E+02  3.396E+00  5.876E+00  1.342E-03  5.298E-03 -6.857E-05
   1    4   51     1    51    1.9997E+01  5.2280E-03   1.9992E+01  0.000E+00  0.000E+00  0.000E+00  1.28246E+02  3.396E+00  5.876E+00  1.342E-03  5.295E-03 -6.706E-05
   1    4   52     1    52    1.9992E+01  5.2269E-03   1.9987E+01  0.000E+00  0.000E+00  0.000E+00  1.27946E+02  3.396E+00  5.875E+00  1.342E-03  5.292E-03 -6.535E-05
   1    4   53     1    53    1.9987E+01  5.2257E-03   1.9981E+01  0.000E+00  0.000E+00  0.000E+00  1.27645E+02  3.395E+00  5.875E+00  1.342E-03  5.289E-03 -6.344E-05
   1    4   54     1    54    1.9981E+01  5.2246E-03   1.9976E+01  0.000E+00  0.000E+00  0.000E+00  1.27345E+02  3.395E+00  5.874E+00  1.341E-03  5.286E-03 -6.129E-05
   1    4   55     1    55    1.9976E+01  5.2235E-03   1.9971E+01  0.000E+00  0.000E+00  0.000E+00  1.27044E+02  3.394E+00  5.874E+00  1.341E-03  5.282E-03 -5.890E-05
   1    4   56     1    56    1.9971E+01  5.2223E-03   1.9966E+01  0.000E+00  0.000E+00  0.000E+00  1.26744E+02  3.394E+00  5.873E+00  1.341E-03  5.279E-03 -5.624E-05
   1    4   57     1    57    1.9966E+01  5.2212E-03   1.9961E+01  0.000E+00  0.000E+00  0.000E+00  1.26443E+02  3.393E+00  5.873E+00  1.341E-03  5.275E-03 -5.330E-05
   1    4   58     1    58    1.9961E+01  5.2201E-03   1.9955E+01  0.000E+00  0.000E+00  0.000E+00  1.26143E+02  3.393E+00  5.872E+00  1.341E-03  5.270E-03 -5.006E-05
   1    4   59     1    59    1.9955E+01  5.2190E-03   1.9950E+01  0.000E+00  0.000E+00  0.000E+00  1.25843E+02  3.393E+00  5.871E+00  1.341E-03  5.265E-03 -4.651E-05
   1    4   60     1    60    1.9950E+01  5.2178E-03   1.9945E+01  0.000E+00  0.000E+00  0.000E+00  1.25542E+02  3.392E+00  5.871E+00  1.341E-03  5.260E-03 -4.264E-05
   1    4   61     1    61    1.9945E+01  5.2167E-03   1.9940E+01  0.000E+00  0.000E+00  0.000E+00  1.25242E+02  3.392E+00  5.870E+00  1.340E-03  5.255E-03 -3.844E-05
   1    4   62     1    62    1.9940E+01  5.2156E-03   1.9934E+01  0.000E+00  0.000E+00  0.000E+00  1.24941E+02  3.391E+00  5.870E+00  1.340E-03  5.249E-03 -3.389E-05
   1    4   63     1    63    1.9934E+01  5.2144E-03   1.9929E+01  0.000E+00  0.000E+00  0.000E+00  1.24641E+02  3.391E+00  5.869E+00  1.340E-03  5.243E-03 -2.900E-05
   1    4   64     1    64    1.9929E+01  5.2133E-03   1.9924E+01  0.000E+00  0.000E+00  0.000E+00  1.24340E+02  3.390E+00  5.869E+00  1.340E-03  5.237E-03 -2.377E-05
   1    4   65     1    65    1.9924E+01  5.2122E-03   1.9919E+01  0.000E+00  0.000E+00  0.000E+00  1.24040E+02  3.390E+00  5.868E+00  1.340E-03  5.230E-03 -1.821E-05
   1    4   66     1    66    1.9919E+01  5.2111E-03   1.9914E+01  0.000E+00  0.000E+00  0.000E+00  1.23740E+02  3.390E+00  5.868E+00  1.340E-03  5.223E-03 -1.232E-05
   1    4   67     1    67    1.9914E+01  5.2099E-03   1.9908E+01  0.000E+00  0.000E+00  0.000E+00  1.23439E+02  3.389E+00  5.867E+00  1.340E-03  5.216E-03 -6.116E-06
   1    4   68     1    68    1.9908E+01  5.2088E-03   1.9903E+01  0.000E+00  0.000E+00  0.000E+00  1.23139E+02  3.389E+00  5.867E+00  1.339E-03  5.208E-03  3.733E-07
   1    4   69     1    69    1.9903E+01  5.2077E-03   1.9898E+01  0.000E+00  0.000E+00  0.000E+00  1.22838E+02  3.388E+00  5.866E+00  1.339E-03  5.201E-03  7.120E-06
   1    4   70     1    70    1.9898E+01  5.2065E-03   1.9893E+01  0.000E+00  0.000E+00  0.000E+00  1.22538E+02  3.388E+00  5.866E+00  1.339E-03  5.192E-03  1.409E-05
   1    4   71     1    71    1.9893E+01  5.2054E-03   1.9888E+01  0.000E+00  0.000E+00  0.000E+00  1.22237E+02  3.387E+00  5.865E+00  1.339E-03  5.184E-03  2.124E-05
   1    4   72     1    72    1.9888E+01  5.2043E-03   1.9882E+01  0.000E+00  0.000E+00  0.000E+00  1.21937E+02  3.387E+00  5.865E+00  1.339E-03  5.176E-03  2.853E-05
   1    4   73     1    73    1.9882E+01  5.2032E-03   1.9877E+01  0.000E+00  0.000E+00  0.000E+00  1.21637E+02  3.387E+00  5.864E+00  1.339E-03  5.167E-03  3.589E-05
   1    4   74     1    74    1.9877E+01  5.2020E-03   1.9872E+01  0.000E+00  0.000E+00  0.000E+00  1.21336E+02  3.386E+00  5.864E+00  1.339E-03  5.159E-03  4.327E-05
   1    4   75     1    75    1.9872E+01  5.2009E-03   1.9867E+01  0.000E+00  0.000E+00  0.000E+00  1.21036E+02  3.386E+00  5.863E+00  1.338E-03  5.150E-03  5.059E-05
   1    4   76     1    76    1.9867E+01  5.1998E-03   1.9862E+01  0.000E+00  0.000E+00  0.000E+00  1.20735E+02  3.385E+00  5.863E+00  1.338E-03  5.142E-03  5.778E-05
   1    4   77     1    77    1.9862E+01  5.1987E-03   1.9856E+01  0.000E+00  0.000E+00  0.000E+00  1.20435E+02  3.385E+00  5.862E+00  1.338E-03  5.134E-03  6.475E-05
   1    4   78     1    78    1.9856E+01  5.1975E-03   1.9851E+01  0.000E+00  0.000E+00  0.000E+00  1.20134E+02  3.384E+00  5.862E+00  1.338E-03  5.126E-03  7.143E-05
   1    4   79     1    79    1.9851E+01  5.1964E-03   1.9846E+01  0.000E+00  0.000E+00  0.000E+00  1.19834E+02  3.384E+00  5.861E+00  1.338E-03  5.119E-03  7.772E-05
   1    4   80     1    80    1.9846E+01  5.1953E-03   1.9841E+01  0.000E+00  0.000E+00  0.000E+00  1.19534E+02  3.384E+00  5.861E+00  1.338E-03  5.112E-03  8.353E-05
   1    4   81     1    81    1.9841E+01  5.1941E-03   1.9836E+01  0.000E+00  0.000E+00  0.000E+00  1.19233E+02  3.383E+00  5.860E+00  1.338E-03  5.105E-03  8.876E-05
   1    4   82     1    82    1.9836E+01  5.1930E-03   1.9830E+01  0.000E+00  0.000E+00  0.000E+00  1.18933E+02  3.383E+00  5.860E+00  1.337E-03  5.100E-03  9.332E-05
   1    4   83     1    83    1.9830E+01  5.1919E-03   1.9825E+01  0.000E+00  0.000E+00  0.000E+00  1.18632E+02  3.382E+00  5.859E+00  1.337E-03  5.095E-03  9.711E-05
   1    4   84     1    84    1.9825E+01  5.1908E-03   1.9820E+01  0.000E+00  0.000E+00  0.000E+00  1.18332E+02  3.382E+00  5.859E+00  1.337E-03  5.091E-03  1.000E-04
   1    4   85     1    85    1.9820E+01  5.1896E-03   1.9815E+01  0.000E+00  0.000E+00  0.000E+00  1.18031E+02  3.381E+00  5.858E+00  1.337E-03  5.088E-03  1.020E-04
   1    4   86     1    86    1.9815E+01  5.1885E-03   1.9810E+01  0.000E+00  0.000E+00  0.000E+00  1.17731E+02  3.381E+00  5.858E+00  1.337E-03  5.086E-03  1.030E-04
   1    4   87     1    87    1.9810E+01  5.1874E-03   1.9804E+01  0.000E+00  0.000E+00  0.000E+00  1.17430E+02  3.380E+00  5.857E+00  1.337E-03  5.085E-03  1.029E-04
   1    4   88     1    88    1.9804E+01  5.1863E-03   1.9799E+01  0.000E+00  0.000E+00  0.000E+00  1.17130E+02  3.380E+00  5.856E+00  1.337E-03  5.085E-03  1.016E-04
   1    4   89     1    89    1.9799E+01  5.1852E-03   1.9794E+01  0.000E+00  0.000E+00  0.000E+00  1.16830E+02  3.380E+00  5.856E+00  1.337E-03  5.086E-03  9.903E-05
   1    4   90     1    90    1.9794E+01  5.1840E-03   1.9789E+01  0.000E+00  0.000E+00  0.000E+00  1.16529E+02  3.379E+00  5.855E+00  1.336E-03  5.089E-03  9.525E-05
   1    4   91     1    91    1.9789E+01  5.1829E-03   1.9784E+01  0.000E+00  0.000E+00  0.000E+00  1.16229E+02  3.379E+00  5.855E+00  1.336E-03  5.093E-03  9.017E-05
   1    4   92     1    92    1.9784E+01  5.1818E-03   1.9779E+01  0.000E+00  0.000E+00  0.000E+00  1.15928E+02  3.378E+00  5.854E+00  1.336E-03  5.098E-03  8.380E-05
   1    4   93     1    93    1.9779E+01  5.1807E-03   1.9773E+01  0.000E+00  0.000E+00  0.000E+00  1.15628E+02  3.378E+00  5.854E+00  1.336E-03  5.105E-03  7.614E-05
   1    4   94     1    94    1.9773E+01  5.1795E-03   1.9768E+01  0.000E+00  0.000E+00  0.000E+00  1.15327E+02  3.377E+00  5.853E+00  1.336E-03  5.112E-03  6.722E-05
   1    4   95     1    95    1.9768E+01  5.1784E-03   1.9763E+01  0.000E+00  0.000E+00  0.000E+00  1.15027E+02  3.377E+00  5.853E+00  1.336E-03  5.121E-03  5.708E-05
   1    4   96     1    96    1.9763E+01  5.1773E-03   1.9758E+01  0.000E+00  0.000E+00  0.000E+00  1.14727E+02  3.377E+00  5.852E+00  1.336E-03  5.132E-03  4.578E-05
   1    4   97     1    97    1.9758E+01  5.1762E-03   1.9753E+01  0.000E+00  0.000E+00  0.000E+00  1.14426E+02  3.376E+00  5.852E+00  1.335E-03  5.143E-03  3.323E-05
   1    4   98     1    98    1.9753E+01  5.1750E-03   1.9747E+01  0.000E+00  0.000E+00  0.000E+00  1.14126E+02  3.376E+00  5.851E+00  1.335E-03  5.157E-03  1.786E-05
   1    4   99     1    99    1.9747E+01  5.1739E-03   1.9742E+01  0.000E+00  0.000E+00  0.000E+00  1.13825E+02  3.375E+00  5.851E+00  1.335E-03  4.740E-03  4.341E-04
   1    4  100     1   100    1.9742E+01  5.1728E-03   1.9737E+01  0.000E+00  0.000E+00  0.000E+00  1.13525E+02  3.375E+00  5.850E+00  1.335E-03  4.342E-03  8.307E-04



1
  VOLUMETRIC BUDGET FOR UNSATURATED ZONE BENEATH STREAMS AT END OF TIME STEP  30 STRESS PERIOD   5
  ------------------------------------------------------------------------------------------------

    CUMULATIVE VOLUMES             L**3    RATES FOR THIS TIME STEP         L**3/T
    ------------------                     ------------------------


          STREAM LOSS =      3290940.0000            STREAM LOSS =            0.5229
    CHANGE IN STORAGE =       817860.6250      CHANGE IN STORAGE =       -1.1999E-03
       RECHARGE TO GW =      2473076.2500         RECHARGE TO GW =            0.5241

             TOTAL IN =      3290940.0000               TOTAL IN =            0.5241

            TOTAL OUT =      3290937.0000              TOTAL OUT =            0.5241

             IN - OUT =            3.0000               IN - OUT =        6.5425E-08

  PERCENT DISCREPANCY =            0.00      PERCENT DISCREPANCY =             0.00



1
              HEAD IN LAYER   1 AT END OF TIME STEP  30 IN STRESS PERIOD    5
  ---------------------------------------------------------------------------

          1      2      3      4      5      6      7      8      9     10
         11     12     13     14     15     16     17     18     19     20
         21     22     23     24     25     26     27     28     29     30
         31     32     33     34     35     36     37     38     39     40
         41     42     43     44     45     46     47     48     49     50
         51     52     53     54     55     56     57     58     59     60
         61     62     63     64     65     66     67     68     69     70
         71     72     73     74     75     76     77     78     79     80
         81     82     83     84     85     86     87     88     89     90
         91     92     93     94     95     96     97     98     99    100
 .........................................................................
   1   104.9  104.9  104.9  104.9  104.9  104.9  104.9  104.9  104.9  104.9
       104.9  104.9  104.9  104.9  104.9  104.9  104.9  104.9  104.9  105.0
       105.0  105.0  105.0  105.0  105.0  105.0  105.0  105.0  105.0  105.0
       105.0  105.0  105.0  105.0  105.0  105.0  105.0  105.0  105.0  105.0
       105.0  105.0  105.0  105.0  105.0  105.0  105.0  105.0  105.0  105.0
       105.0  105.0  104.9  104.9  104.9  104.9  104.8  104.8  104.7  104.7
       104.6  104.5  104.4  104.3  104.2  104.1  103.9  103.7  103.6  103.3
       103.1  102.8  102.5  102.2  101.8  101.4  101.0  100.5  100.0   99.4
        98.8   98.1   97.4   96.6   95.8   94.8   93.9   92.9   91.8   90.6
        89.4   88.1   86.7   85.2   83.7   82.1   80.5   78.7   76.9   75.0
   2   104.9  104.9  104.9  104.9  104.9  104.9  104.9  104.9  104.9  104.9
       104.9  104.9  104.9  104.9  104.9  104.9  104.9  104.9  105.0  105.0
       105.0  105.0  105.0  105.0  105.0  105.0  105.0  105.0  105.0  105.0
       105.0  105.0  105.0  105.0  105.0  105.0  105.0  105.0  105.0  105.0
       105.0  105.0  105.0  105.0  105.0  105.0  105.0  105.0  105.0  105.0
       105.0  105.0  105.0  104.9  104.9  104.9  104.8  104.8  104.7  104.7
       104.6  104.5  104.4  104.3  104.2  104.1  103.9  103.8  103.6  103.3
       103.1  102.8  102.5  102.2  101.8  101.4  101.0  100.5  100.0   99.4
        98.8   98.1   97.4   96.6   95.8   94.9   93.9   92.9   91.8   90.6
        89.4   88.1   86.7   85.2   83.7   82.1   80.5   78.7   76.9   75.0
   3   104.9  104.9  104.9  104.9  104.9  104.9  104.9  104.9  104.9  104.9
       104.9  104.9  104.9  104.9  104.9  105.0  105.0  105.0  105.0  105.0
       105.0  105.0  105.0  105.0  105.0  105.0  105.0  105.0  105.0  105.0
       105.0  105.0  105.0  105.0  105.0  105.0  105.0  105.0  105.0  105.0
       105.0  105.0  105.0  105.0  105.0  105.0  105.0  105.0  105.0  105.0
       105.0  105.0  105.0  104.9  104.9  104.9  104.8  104.8  104.7  104.7
       104.6  104.5  104.4  104.3  104.2  104.1  103.9  103.8  103.6  103.4
       103.1  102.8  102.5  102.2  101.8  101.4  101.0  100.5  100.0   99.4
        98.8   98.1   97.4   96.6   95.8   94.9   93.9   92.9   91.8   90.6
        89.4   88.1   86.7   85.3   83.7   82.1   80.5   78.7   76.9   75.0
   4   104.9  104.9  104.9  104.9  104.9  104.9  104.9  104.9  104.9  104.9
       104.9  104.9  105.0  105.0  105.0  105.0  105.0  105.0  105.0  105.0
       105.0  105.0  105.0  105.0  105.0  105.0  105.0  105.0  105.0  105.0
       105.0  105.0  105.0  105.0  105.0  105.0  105.0  105.0  105.0  105.0
       105.0  105.0  105.1  105.0  105.0  105.0  105.0  105.0  105.0  105.0
       105.0  105.0  105.0  105.0  104.9  104.9  104.9  104.8  104.8  104.7
       104.6  104.5  104.5  104.4  104.2  104.1  103.9  103.8  103.6  103.4
       103.1  102.8  102.5  102.2  101.9  101.4  101.0  100.5  100.0   99.4
        98.8   98.1   97.4   96.6   95.8   94.9   93.9   92.9   91.8   90.6
        89.4   88.1   86.7   85.3   83.7   82.2   80.5   78.7   76.9   75.0
   5   104.9  104.9  104.9  104.9  104.9  104.9  104.9  104.9  104.9  104.9
       104.9  104.9  104.9  104.9  104.9  105.0  105.0  105.0  105.0  105.0
       105.0  105.0  105.0  105.0  105.0  105.0  105.0  105.0  105.0  105.0
       105.0  105.0  105.0  105.0  105.0  105.0  105.0  105.0  105.0  105.0
       105.0  105.0  105.0  105.0  105.0  105.0  105.0  105.0  105.0  105.0
       105.0  105.0  105.0  104.9  104.9  104.9  104.8  104.8  104.7  104.7
       104.6  104.5  104.4  104.3  104.2  104.1  103.9  103.8  103.6  103.4
       103.1  102.8  102.5  102.2  101.8  101.4  101.0  100.5  100.0   99.4
        98.8   98.1   97.4   96.6   95.8   94.9   93.9   92.9   91.8   90.6
        89.4   88.1   86.7   85.3   83.7   82.1   80.5   78.7   76.9   75.0
   6   104.9  104.9  104.9  104.9  104.9  104.9  104.9  104.9  104.9  104.9
       104.9  104.9  104.9  104.9  104.9  104.9  104.9  104.9  105.0  105.0
       105.0  105.0  105.0  105.0  105.0  105.0  105.0  105.0  105.0  105.0
       105.0  105.0  105.0  105.0  105.0  105.0  105.0  105.0  105.0  105.0
       105.0  105.0  105.0  105.0  105.0  105.0  105.0  105.0  105.0  105.0
       105.0  105.0  105.0  104.9  104.9  104.9  104.8  104.8  104.7  104.7
       104.6  104.5  104.4  104.3  104.2  104.1  103.9  103.8  103.6  103.3
       103.1  102.8  102.5  102.2  101.8  101.4  101.0  100.5  100.0   99.4
        98.8   98.1   97.4   96.6   95.8   94.9   93.9   92.9   91.8   90.6
        89.4   88.1   86.7   85.2   83.7   82.1   80.5   78.7   76.9   75.0
   7   104.9  104.9  104.9  104.9  104.9  104.9  104.9  104.9  104.9  104.9
       104.9  104.9  104.9  104.9  104.9  104.9  104.9  104.9  104.9  105.0
       105.0  105.0  105.0  105.0  105.0  105.0  105.0  105.0  105.0  105.0
       105.0  105.0  105.0  105.0  105.0  105.0  105.0  105.0  105.0  105.0
       105.0  105.0  105.0  105.0  105.0  105.0  105.0  105.0  105.0  105.0
       105.0  105.0  104.9  104.9  104.9  104.9  104.8  104.8  104.7  104.7
       104.6  104.5  104.4  104.3  104.2  104.1  103.9  103.7  103.6  103.3
       103.1  102.8  102.5  102.2  101.8  101.4  101.0  100.5  100.0   99.4
        98.8   98.1   97.4   96.6   95.8   94.8   93.9   92.9   91.8   90.6
        89.4   88.1   86.7   85.2   83.7   82.1   80.5   78.7   76.9   75.0
1
  VOLUMETRIC BUDGET FOR ENTIRE MODEL AT END OF TIME STEP 30 IN STRESS PERIOD   5
  ------------------------------------------------------------------------------

     CUMULATIVE VOLUMES      L**3       RATES FOR THIS TIME STEP      L**3/T
     ------------------                 ------------------------

           IN:                                      IN:
           ---                                      ---
             STORAGE =     7054742.5000               STORAGE =           0.1382
       CONSTANT HEAD =           0.0000         CONSTANT HEAD =           0.0000
     HEAD DEP BOUNDS =           0.0000       HEAD DEP BOUNDS =           0.0000
      STREAM LEAKAGE =     2473078.0000        STREAM LEAKAGE =           0.5241

            TOTAL IN =     9527820.0000              TOTAL IN =           0.6623

          OUT:                                     OUT:
          ----                                     ----
             STORAGE =     1442680.5000               STORAGE =           0.3130
       CONSTANT HEAD =           0.0000         CONSTANT HEAD =           0.0000
     HEAD DEP BOUNDS =     8084923.5000       HEAD DEP BOUNDS =           0.3492
      STREAM LEAKAGE =           0.0000        STREAM LEAKAGE =           0.0000

           TOTAL OUT =     9527604.0000             TOTAL OUT =           0.6623

            IN - OUT =         216.0000              IN - OUT =       8.1658E-06

 PERCENT DISCREPANCY =           0.00     PERCENT DISCREPANCY =           0.00






          TIME SUMMARY AT END OF TIME STEP  30 IN STRESS PERIOD    5
                    SECONDS     MINUTES      HOURS       DAYS        YEARS
                    -----------------------------------------------------------
   TIME STEP LENGTH 2.49961E+05  4166.0      69.434      2.8931     7.92080E-03
 STRESS PERIOD TIME 2.59200E+06  43200.      720.00      30.000     8.21355E-02
         TOTAL TIME 1.29600E+07 2.16000E+05  3600.0      150.00     0.41068    
1
1
                            STRESS PERIOD NO.    6, LENGTH =   2592000.    
                            -----------------------------------------------

                              NUMBER OF TIME STEPS =    30

                               MULTIPLIER FOR DELT =     1.100

                            INITIAL TIME STEP SIZE =   15757.40    

 REUSING NON-PARAMETER GHB CELLS FROM LAST STRESS PERIOD

      7 GHB CELLS



 CLASSIFICATION & COUNT OF STREAM SEGMENTS BASED ON SOURCE OF INFLOW:

                HEADWATER     DIVERSION     RECEIVES TRIBUTARY FLOW
                ---------     ---------     -----------------------
                     1              0               0



                    INPUT DATA FOR EACH STREAM SEGMENT
 ---------------------------------------------------------------------------------------------

 SEGMENT    SEG.     INFLOW   OVERLAND   STREAM    STREAM   ICALC  OUTFLOW  DIVERSION PRIORITY
    NO.    LENGTH     RATE     RUNOFF      ET       PPT.    METH.  TO SEG.  FROM SEG.    NO.

      1  2.000E+04 3.561E+01 0.000E+00 0.000E+00 0.000E+00    2        0        0        0


         STREAMBED PROPERTIES AND STREAM DIMENSIONS

 SEGMENT     BED HYD. COND.      BED THICKNESS     ELEV.-TOP OF BED     WIDTH OF STREAM     DEPTH OF STREAM    STREAM ROUGHNESS
    No.     UPPER     LOWER     UPPER     LOWER     UPPER     LOWER     UPPER     LOWER     UPPER     LOWER   CHANNEL      BANK

     1  3.500E-07 3.500E-07                                                                                 3.000E-02 4.000E-02

  EIGHT POINT CROSS-SECTION DATA FOR SEGMENTS WITH ICALC = 2
    X VALUES X VALUES START FROM LEFT SIDE LOOKING DOWNSTREAM

     SEGMENT NO.        X1        X2        X3        X4        X5        X6        X7        X8
            1      0.000E+00 2.000E+00 4.000E+00 6.000E+00 8.000E+00 1.000E+01 1.200E+01 1.400E+01

    Z VALUES ARE RELATIVE TO STREAMBED ELEVATION

     SEGMENT NO.          Z1        Z2        Z3        Z4        Z5        Z6        Z7        Z8
            1      6.000E+00 4.500E+00 3.500E+00 0.000E+00 3.000E-01 3.500E+00 4.500E+00 6.000E+00



 
 SOLVING FOR HEAD 

 NO OUTPUT CONTROL FOR STRESS PERIOD    6   TIME STEP   1
 
 SOLVING FOR HEAD 

 NO OUTPUT CONTROL FOR STRESS PERIOD    6   TIME STEP   2
 
 SOLVING FOR HEAD 

 NO OUTPUT CONTROL FOR STRESS PERIOD    6   TIME STEP   3
 
 SOLVING FOR HEAD 

 NO OUTPUT CONTROL FOR STRESS PERIOD    6   TIME STEP   4
 
 SOLVING FOR HEAD 

 NO OUTPUT CONTROL FOR STRESS PERIOD    6   TIME STEP   5
 
 SOLVING FOR HEAD 

 NO OUTPUT CONTROL FOR STRESS PERIOD    6   TIME STEP   6
 
 SOLVING FOR HEAD 

 NO OUTPUT CONTROL FOR STRESS PERIOD    6   TIME STEP   7
 
 SOLVING FOR HEAD 

 NO OUTPUT CONTROL FOR STRESS PERIOD    6   TIME STEP   8
 
 SOLVING FOR HEAD 

 NO OUTPUT CONTROL FOR STRESS PERIOD    6   TIME STEP   9
 
 SOLVING FOR HEAD 

 NO OUTPUT CONTROL FOR STRESS PERIOD    6   TIME STEP  10
 
 SOLVING FOR HEAD 

 NO OUTPUT CONTROL FOR STRESS PERIOD    6   TIME STEP  11
 
 SOLVING FOR HEAD 

 NO OUTPUT CONTROL FOR STRESS PERIOD    6   TIME STEP  12
 
 SOLVING FOR HEAD 

 NO OUTPUT CONTROL FOR STRESS PERIOD    6   TIME STEP  13
 
 SOLVING FOR HEAD 

 NO OUTPUT CONTROL FOR STRESS PERIOD    6   TIME STEP  14
 
 SOLVING FOR HEAD 

 NO OUTPUT CONTROL FOR STRESS PERIOD    6   TIME STEP  15
 
 SOLVING FOR HEAD 

 NO OUTPUT CONTROL FOR STRESS PERIOD    6   TIME STEP  16
 
 SOLVING FOR HEAD 

 NO OUTPUT CONTROL FOR STRESS PERIOD    6   TIME STEP  17
 
 SOLVING FOR HEAD 

 NO OUTPUT CONTROL FOR STRESS PERIOD    6   TIME STEP  18
 
 SOLVING FOR HEAD 

 NO OUTPUT CONTROL FOR STRESS PERIOD    6   TIME STEP  19
 
 SOLVING FOR HEAD 

 NO OUTPUT CONTROL FOR STRESS PERIOD    6   TIME STEP  20
 
 SOLVING FOR HEAD 

 NO OUTPUT CONTROL FOR STRESS PERIOD    6   TIME STEP  21
 
 SOLVING FOR HEAD 

 NO OUTPUT CONTROL FOR STRESS PERIOD    6   TIME STEP  22
 
 SOLVING FOR HEAD 

 NO OUTPUT CONTROL FOR STRESS PERIOD    6   TIME STEP  23
 
 SOLVING FOR HEAD 

 NO OUTPUT CONTROL FOR STRESS PERIOD    6   TIME STEP  24
 
 SOLVING FOR HEAD 

 NO OUTPUT CONTROL FOR STRESS PERIOD    6   TIME STEP  25
 
 SOLVING FOR HEAD 

 NO OUTPUT CONTROL FOR STRESS PERIOD    6   TIME STEP  26
 
 SOLVING FOR HEAD 

 NO OUTPUT CONTROL FOR STRESS PERIOD    6   TIME STEP  27
 
 SOLVING FOR HEAD 

 NO OUTPUT CONTROL FOR STRESS PERIOD    6   TIME STEP  28
 
 SOLVING FOR HEAD 

 NO OUTPUT CONTROL FOR STRESS PERIOD    6   TIME STEP  29
 
 SOLVING FOR HEAD 

 NO OUTPUT CONTROL FOR STRESS PERIOD    6   TIME STEP  30
1
  VOLUMETRIC BUDGET FOR UNSATURATED ZONE BENEATH STREAMS AT END OF TIME STEP  30 STRESS PERIOD   6
  ------------------------------------------------------------------------------------------------

    CUMULATIVE VOLUMES             L**3    RATES FOR THIS TIME STEP         L**3/T
    ------------------                     ------------------------


          STREAM LOSS =      5573343.5000            STREAM LOSS =            0.8806
    CHANGE IN STORAGE =      1065675.1250      CHANGE IN STORAGE =        4.2366E-02
       RECHARGE TO GW =      4507656.5000         RECHARGE TO GW =            0.8382

             TOTAL IN =      5573343.5000               TOTAL IN =            0.8806

            TOTAL OUT =      5573331.5000              TOTAL OUT =            0.8806

             IN - OUT =           12.0000               IN - OUT =       -1.7881E-07

  PERCENT DISCREPANCY =            0.00      PERCENT DISCREPANCY =             0.00



1
  VOLUMETRIC BUDGET FOR ENTIRE MODEL AT END OF TIME STEP 30 IN STRESS PERIOD   6
  ------------------------------------------------------------------------------

     CUMULATIVE VOLUMES      L**3       RATES FOR THIS TIME STEP      L**3/T
     ------------------                 ------------------------

           IN:                                      IN:
           ---                                      ---
             STORAGE =     7198738.5000               STORAGE =       3.5992E-02
       CONSTANT HEAD =           0.0000         CONSTANT HEAD =           0.0000
     HEAD DEP BOUNDS =           0.0000       HEAD DEP BOUNDS =           0.0000
      STREAM LEAKAGE =     4507659.5000        STREAM LEAKAGE =           0.8382

            TOTAL IN =    11706398.0000              TOTAL IN =           0.8742

          OUT:                                     OUT:
          ----                                     ----
             STORAGE =     2711102.0000               STORAGE =           0.5228
       CONSTANT HEAD =           0.0000         CONSTANT HEAD =           0.0000
     HEAD DEP BOUNDS =     8995105.0000       HEAD DEP BOUNDS =           0.3514
      STREAM LEAKAGE =           0.0000        STREAM LEAKAGE =           0.0000

           TOTAL OUT =    11706207.0000             TOTAL OUT =           0.8742

            IN - OUT =         191.0000              IN - OUT =      -4.1664E-05

 PERCENT DISCREPANCY =           0.00     PERCENT DISCREPANCY =           0.00






          TIME SUMMARY AT END OF TIME STEP  30 IN STRESS PERIOD    6
                    SECONDS     MINUTES      HOURS       DAYS        YEARS
                    -----------------------------------------------------------
   TIME STEP LENGTH 2.49961E+05  4166.0      69.434      2.8931     7.92080E-03
 STRESS PERIOD TIME 2.59200E+06  43200.      720.00      30.000     8.21355E-02
         TOTAL TIME 1.55520E+07 2.59200E+05  4320.0      180.00     0.49281    
1
1
                            STRESS PERIOD NO.    7, LENGTH =   2592000.    
                            -----------------------------------------------

                              NUMBER OF TIME STEPS =    30

                               MULTIPLIER FOR DELT =     1.100

                            INITIAL TIME STEP SIZE =   15757.40    

 REUSING NON-PARAMETER GHB CELLS FROM LAST STRESS PERIOD

      7 GHB CELLS



 CLASSIFICATION & COUNT OF STREAM SEGMENTS BASED ON SOURCE OF INFLOW:

                HEADWATER     DIVERSION     RECEIVES TRIBUTARY FLOW
                ---------     ---------     -----------------------
                     1              0               0



                    INPUT DATA FOR EACH STREAM SEGMENT
 ---------------------------------------------------------------------------------------------

 SEGMENT    SEG.     INFLOW   OVERLAND   STREAM    STREAM   ICALC  OUTFLOW  DIVERSION PRIORITY
    NO.    LENGTH     RATE     RUNOFF      ET       PPT.    METH.  TO SEG.  FROM SEG.    NO.

      1  2.000E+04 4.407E+01 0.000E+00 0.000E+00 0.000E+00    2        0        0        0


         STREAMBED PROPERTIES AND STREAM DIMENSIONS

 SEGMENT     BED HYD. COND.      BED THICKNESS     ELEV.-TOP OF BED     WIDTH OF STREAM     DEPTH OF STREAM    STREAM ROUGHNESS
    No.     UPPER     LOWER     UPPER     LOWER     UPPER     LOWER     UPPER     LOWER     UPPER     LOWER   CHANNEL      BANK

     1  3.500E-07 3.500E-07                                                                                 3.000E-02 4.000E-02

  EIGHT POINT CROSS-SECTION DATA FOR SEGMENTS WITH ICALC = 2
    X VALUES X VALUES START FROM LEFT SIDE LOOKING DOWNSTREAM

     SEGMENT NO.        X1        X2        X3        X4        X5        X6        X7        X8
            1      0.000E+00 2.000E+00 4.000E+00 6.000E+00 8.000E+00 1.000E+01 1.200E+01 1.400E+01

    Z VALUES ARE RELATIVE TO STREAMBED ELEVATION

     SEGMENT NO.          Z1        Z2        Z3        Z4        Z5        Z6        Z7        Z8
            1      6.000E+00 4.500E+00 3.500E+00 0.000E+00 3.000E-01 3.500E+00 4.500E+00 6.000E+00



 
 SOLVING FOR HEAD 

 NO OUTPUT CONTROL FOR STRESS PERIOD    7   TIME STEP   1
 
 SOLVING FOR HEAD 

 NO OUTPUT CONTROL FOR STRESS PERIOD    7   TIME STEP   2
 
 SOLVING FOR HEAD 

 NO OUTPUT CONTROL FOR STRESS PERIOD    7   TIME STEP   3
 
 SOLVING FOR HEAD 

 NO OUTPUT CONTROL FOR STRESS PERIOD    7   TIME STEP   4
 
 SOLVING FOR HEAD 

 NO OUTPUT CONTROL FOR STRESS PERIOD    7   TIME STEP   5
 
 SOLVING FOR HEAD 

 NO OUTPUT CONTROL FOR STRESS PERIOD    7   TIME STEP   6
 
 SOLVING FOR HEAD 

 NO OUTPUT CONTROL FOR STRESS PERIOD    7   TIME STEP   7
 
 SOLVING FOR HEAD 

 NO OUTPUT CONTROL FOR STRESS PERIOD    7   TIME STEP   8
 
 SOLVING FOR HEAD 

 NO OUTPUT CONTROL FOR STRESS PERIOD    7   TIME STEP   9
 
 SOLVING FOR HEAD 

 NO OUTPUT CONTROL FOR STRESS PERIOD    7   TIME STEP  10
 
 SOLVING FOR HEAD 

 NO OUTPUT CONTROL FOR STRESS PERIOD    7   TIME STEP  11
 
 SOLVING FOR HEAD 

 NO OUTPUT CONTROL FOR STRESS PERIOD    7   TIME STEP  12
 
 SOLVING FOR HEAD 

 NO OUTPUT CONTROL FOR STRESS PERIOD    7   TIME STEP  13
 
 SOLVING FOR HEAD 

 NO OUTPUT CONTROL FOR STRESS PERIOD    7   TIME STEP  14
 
 SOLVING FOR HEAD 

 NO OUTPUT CONTROL FOR STRESS PERIOD    7   TIME STEP  15
 
 SOLVING FOR HEAD 

 NO OUTPUT CONTROL FOR STRESS PERIOD    7   TIME STEP  16
 
 SOLVING FOR HEAD 

 NO OUTPUT CONTROL FOR STRESS PERIOD    7   TIME STEP  17
 
 SOLVING FOR HEAD 

 NO OUTPUT CONTROL FOR STRESS PERIOD    7   TIME STEP  18
 
 SOLVING FOR HEAD 

 NO OUTPUT CONTROL FOR STRESS PERIOD    7   TIME STEP  19
 
 SOLVING FOR HEAD 

 NO OUTPUT CONTROL FOR STRESS PERIOD    7   TIME STEP  20
 
 SOLVING FOR HEAD 

 NO OUTPUT CONTROL FOR STRESS PERIOD    7   TIME STEP  21
 
 SOLVING FOR HEAD 

 NO OUTPUT CONTROL FOR STRESS PERIOD    7   TIME STEP  22
 
 SOLVING FOR HEAD 

 NO OUTPUT CONTROL FOR STRESS PERIOD    7   TIME STEP  23
 
 SOLVING FOR HEAD 

 NO OUTPUT CONTROL FOR STRESS PERIOD    7   TIME STEP  24
 
 SOLVING FOR HEAD 

 NO OUTPUT CONTROL FOR STRESS PERIOD    7   TIME STEP  25
 
 SOLVING FOR HEAD 

 NO OUTPUT CONTROL FOR STRESS PERIOD    7   TIME STEP  26
 
 SOLVING FOR HEAD 

 NO OUTPUT CONTROL FOR STRESS PERIOD    7   TIME STEP  27
 
 SOLVING FOR HEAD 

 NO OUTPUT CONTROL FOR STRESS PERIOD    7   TIME STEP  28
 
 SOLVING FOR HEAD 

 NO OUTPUT CONTROL FOR STRESS PERIOD    7   TIME STEP  29
 
 SOLVING FOR HEAD 

 NO OUTPUT CONTROL FOR STRESS PERIOD    7   TIME STEP  30
1
  VOLUMETRIC BUDGET FOR UNSATURATED ZONE BENEATH STREAMS AT END OF TIME STEP  30 STRESS PERIOD   7
  ------------------------------------------------------------------------------------------------

    CUMULATIVE VOLUMES             L**3    RATES FOR THIS TIME STEP         L**3/T
    ------------------                     ------------------------


          STREAM LOSS =      8309458.0000            STREAM LOSS =            1.0556
    CHANGE IN STORAGE =      1218420.0000      CHANGE IN STORAGE =       -1.6521E-02
       RECHARGE TO GW =      7091024.0000         RECHARGE TO GW =            1.0721

             TOTAL IN =      8309458.0000               TOTAL IN =            1.0721

            TOTAL OUT =      8309444.0000              TOTAL OUT =            1.0721

             IN - OUT =           14.0000               IN - OUT =       -1.9744E-07

  PERCENT DISCREPANCY =            0.00      PERCENT DISCREPANCY =             0.00



1
  VOLUMETRIC BUDGET FOR ENTIRE MODEL AT END OF TIME STEP 30 IN STRESS PERIOD   7
  ------------------------------------------------------------------------------

     CUMULATIVE VOLUMES      L**3       RATES FOR THIS TIME STEP      L**3/T
     ------------------                 ------------------------

           IN:                                      IN:
           ---                                      ---
             STORAGE =     7221082.5000               STORAGE =           0.0000
       CONSTANT HEAD =           0.0000         CONSTANT HEAD =           0.0000
     HEAD DEP BOUNDS =           0.0000       HEAD DEP BOUNDS =           0.0000
      STREAM LEAKAGE =     7091031.5000        STREAM LEAKAGE =           1.0721

            TOTAL IN =    14312114.0000              TOTAL IN =           1.0721

          OUT:                                     OUT:
          ----                                     ----
             STORAGE =     4403874.5000               STORAGE =           0.7160
       CONSTANT HEAD =           0.0000         CONSTANT HEAD =           0.0000
     HEAD DEP BOUNDS =     9908057.0000       HEAD DEP BOUNDS =           0.3562
      STREAM LEAKAGE =           0.0000        STREAM LEAKAGE =           0.0000

           TOTAL OUT =    14311932.0000             TOTAL OUT =           1.0722

            IN - OUT =         182.0000              IN - OUT =      -3.0756E-05

 PERCENT DISCREPANCY =           0.00     PERCENT DISCREPANCY =           0.00






          TIME SUMMARY AT END OF TIME STEP  30 IN STRESS PERIOD    7
                    SECONDS     MINUTES      HOURS       DAYS        YEARS
                    -----------------------------------------------------------
   TIME STEP LENGTH 2.49961E+05  4166.0      69.434      2.8931     7.92080E-03
 STRESS PERIOD TIME 2.59200E+06  43200.      720.00      30.000     8.21355E-02
         TOTAL TIME 1.81440E+07 3.02400E+05  5040.0      210.00     0.57495    
1
1
                            STRESS PERIOD NO.    8, LENGTH =   2592000.    
                            -----------------------------------------------

                              NUMBER OF TIME STEPS =    30

                               MULTIPLIER FOR DELT =     1.100

                            INITIAL TIME STEP SIZE =   15757.40    

 REUSING NON-PARAMETER GHB CELLS FROM LAST STRESS PERIOD

      7 GHB CELLS



 CLASSIFICATION & COUNT OF STREAM SEGMENTS BASED ON SOURCE OF INFLOW:

                HEADWATER     DIVERSION     RECEIVES TRIBUTARY FLOW
                ---------     ---------     -----------------------
                     1              0               0



                    INPUT DATA FOR EACH STREAM SEGMENT
 ---------------------------------------------------------------------------------------------

 SEGMENT    SEG.     INFLOW   OVERLAND   STREAM    STREAM   ICALC  OUTFLOW  DIVERSION PRIORITY
    NO.    LENGTH     RATE     RUNOFF      ET       PPT.    METH.  TO SEG.  FROM SEG.    NO.

      1  2.000E+04 3.391E+01 0.000E+00 0.000E+00 0.000E+00    2        0        0        0


         STREAMBED PROPERTIES AND STREAM DIMENSIONS

 SEGMENT     BED HYD. COND.      BED THICKNESS     ELEV.-TOP OF BED     WIDTH OF STREAM     DEPTH OF STREAM    STREAM ROUGHNESS
    No.     UPPER     LOWER     UPPER     LOWER     UPPER     LOWER     UPPER     LOWER     UPPER     LOWER   CHANNEL      BANK

     1  3.500E-07 3.500E-07                                                                                 3.000E-02 4.000E-02

  EIGHT POINT CROSS-SECTION DATA FOR SEGMENTS WITH ICALC = 2
    X VALUES X VALUES START FROM LEFT SIDE LOOKING DOWNSTREAM

     SEGMENT NO.        X1        X2        X3        X4        X5        X6        X7        X8
            1      0.000E+00 2.000E+00 4.000E+00 6.000E+00 8.000E+00 1.000E+01 1.200E+01 1.400E+01

    Z VALUES ARE RELATIVE TO STREAMBED ELEVATION

     SEGMENT NO.          Z1        Z2        Z3        Z4        Z5        Z6        Z7        Z8
            1      6.000E+00 4.500E+00 3.500E+00 0.000E+00 3.000E-01 3.500E+00 4.500E+00 6.000E+00



 
 SOLVING FOR HEAD 

 NO OUTPUT CONTROL FOR STRESS PERIOD    8   TIME STEP   1
 
 SOLVING FOR HEAD 

 NO OUTPUT CONTROL FOR STRESS PERIOD    8   TIME STEP   2
 
 SOLVING FOR HEAD 

 NO OUTPUT CONTROL FOR STRESS PERIOD    8   TIME STEP   3
 
 SOLVING FOR HEAD 

 NO OUTPUT CONTROL FOR STRESS PERIOD    8   TIME STEP   4
 
 SOLVING FOR HEAD 

 NO OUTPUT CONTROL FOR STRESS PERIOD    8   TIME STEP   5
 
 SOLVING FOR HEAD 

 NO OUTPUT CONTROL FOR STRESS PERIOD    8   TIME STEP   6
 
 SOLVING FOR HEAD 

 NO OUTPUT CONTROL FOR STRESS PERIOD    8   TIME STEP   7
 
 SOLVING FOR HEAD 

 NO OUTPUT CONTROL FOR STRESS PERIOD    8   TIME STEP   8
 
 SOLVING FOR HEAD 

 NO OUTPUT CONTROL FOR STRESS PERIOD    8   TIME STEP   9
 
 SOLVING FOR HEAD 

 NO OUTPUT CONTROL FOR STRESS PERIOD    8   TIME STEP  10
 
 SOLVING FOR HEAD 

 NO OUTPUT CONTROL FOR STRESS PERIOD    8   TIME STEP  11
 
 SOLVING FOR HEAD 

 NO OUTPUT CONTROL FOR STRESS PERIOD    8   TIME STEP  12
 
 SOLVING FOR HEAD 

 NO OUTPUT CONTROL FOR STRESS PERIOD    8   TIME STEP  13
 
 SOLVING FOR HEAD 

 NO OUTPUT CONTROL FOR STRESS PERIOD    8   TIME STEP  14
 
 SOLVING FOR HEAD 

 NO OUTPUT CONTROL FOR STRESS PERIOD    8   TIME STEP  15
 
 SOLVING FOR HEAD 

 NO OUTPUT CONTROL FOR STRESS PERIOD    8   TIME STEP  16
 
 SOLVING FOR HEAD 

 NO OUTPUT CONTROL FOR STRESS PERIOD    8   TIME STEP  17
 
 SOLVING FOR HEAD 

 NO OUTPUT CONTROL FOR STRESS PERIOD    8   TIME STEP  18
 
 SOLVING FOR HEAD 

 NO OUTPUT CONTROL FOR STRESS PERIOD    8   TIME STEP  19
 
 SOLVING FOR HEAD 

 NO OUTPUT CONTROL FOR STRESS PERIOD    8   TIME STEP  20
 
 SOLVING FOR HEAD 

 NO OUTPUT CONTROL FOR STRESS PERIOD    8   TIME STEP  21
 
 SOLVING FOR HEAD 

 NO OUTPUT CONTROL FOR STRESS PERIOD    8   TIME STEP  22
 
 SOLVING FOR HEAD 

 NO OUTPUT CONTROL FOR STRESS PERIOD    8   TIME STEP  23
 
 SOLVING FOR HEAD 

 NO OUTPUT CONTROL FOR STRESS PERIOD    8   TIME STEP  24
 
 SOLVING FOR HEAD 

 NO OUTPUT CONTROL FOR STRESS PERIOD    8   TIME STEP  25
 
 SOLVING FOR HEAD 

 NO OUTPUT CONTROL FOR STRESS PERIOD    8   TIME STEP  26
 
 SOLVING FOR HEAD 

 NO OUTPUT CONTROL FOR STRESS PERIOD    8   TIME STEP  27
 
 SOLVING FOR HEAD 

 NO OUTPUT CONTROL FOR STRESS PERIOD    8   TIME STEP  28
 
 SOLVING FOR HEAD 

 NO OUTPUT CONTROL FOR STRESS PERIOD    8   TIME STEP  29
 
 SOLVING FOR HEAD 

 NO OUTPUT CONTROL FOR STRESS PERIOD    8   TIME STEP  30
1
  VOLUMETRIC BUDGET FOR UNSATURATED ZONE BENEATH STREAMS AT END OF TIME STEP  30 STRESS PERIOD   8
  ------------------------------------------------------------------------------------------------

    CUMULATIVE VOLUMES             L**3    RATES FOR THIS TIME STEP         L**3/T
    ------------------                     ------------------------


          STREAM LOSS =     10492017.0000            STREAM LOSS =            0.8420
    CHANGE IN STORAGE =      1046808.1875      CHANGE IN STORAGE =       -1.0842E-02
       RECHARGE TO GW =      9445191.0000         RECHARGE TO GW =            0.8529

             TOTAL IN =     10492017.0000               TOTAL IN =            0.8529

            TOTAL OUT =     10491999.0000              TOTAL OUT =            0.8529

             IN - OUT =           18.0000               IN - OUT =        2.4214E-08

  PERCENT DISCREPANCY =            0.00      PERCENT DISCREPANCY =             0.00



1
  VOLUMETRIC BUDGET FOR ENTIRE MODEL AT END OF TIME STEP 30 IN STRESS PERIOD   8
  ------------------------------------------------------------------------------

     CUMULATIVE VOLUMES      L**3       RATES FOR THIS TIME STEP      L**3/T
     ------------------                 ------------------------

           IN:                                      IN:
           ---                                      ---
             STORAGE =     7254833.0000               STORAGE =       1.7275E-02
       CONSTANT HEAD =           0.0000         CONSTANT HEAD =           0.0000
     HEAD DEP BOUNDS =           0.0000       HEAD DEP BOUNDS =           0.0000
      STREAM LEAKAGE =     9445207.0000        STREAM LEAKAGE =           0.8529

            TOTAL IN =    16700040.0000              TOTAL IN =           0.8702

          OUT:                                     OUT:
          ----                                     ----
             STORAGE =     5875242.0000               STORAGE =           0.5204
       CONSTANT HEAD =           0.0000         CONSTANT HEAD =           0.0000
     HEAD DEP BOUNDS =    10824647.0000       HEAD DEP BOUNDS =           0.3498
      STREAM LEAKAGE =           0.0000        STREAM LEAKAGE =           0.0000

           TOTAL OUT =    16699889.0000             TOTAL OUT =           0.8702

            IN - OUT =         151.0000              IN - OUT =      -4.1723E-05

 PERCENT DISCREPANCY =           0.00     PERCENT DISCREPANCY =           0.00






          TIME SUMMARY AT END OF TIME STEP  30 IN STRESS PERIOD    8
                    SECONDS     MINUTES      HOURS       DAYS        YEARS
                    -----------------------------------------------------------
   TIME STEP LENGTH 2.49961E+05  4166.0      69.434      2.8931     7.92080E-03
 STRESS PERIOD TIME 2.59200E+06  43200.      720.00      30.000     8.21355E-02
         TOTAL TIME 2.07360E+07 3.45600E+05  5760.0      240.00     0.65708    
1
1
                            STRESS PERIOD NO.    9, LENGTH =   2592000.    
                            -----------------------------------------------

                              NUMBER OF TIME STEPS =    30

                               MULTIPLIER FOR DELT =     1.100

                            INITIAL TIME STEP SIZE =   15757.40    

 REUSING NON-PARAMETER GHB CELLS FROM LAST STRESS PERIOD

      7 GHB CELLS



 CLASSIFICATION & COUNT OF STREAM SEGMENTS BASED ON SOURCE OF INFLOW:

                HEADWATER     DIVERSION     RECEIVES TRIBUTARY FLOW
                ---------     ---------     -----------------------
                     1              0               0



                    INPUT DATA FOR EACH STREAM SEGMENT
 ---------------------------------------------------------------------------------------------

 SEGMENT    SEG.     INFLOW   OVERLAND   STREAM    STREAM   ICALC  OUTFLOW  DIVERSION PRIORITY
    NO.    LENGTH     RATE     RUNOFF      ET       PPT.    METH.  TO SEG.  FROM SEG.    NO.

      1  2.000E+04 1.628E+01 0.000E+00 0.000E+00 0.000E+00    2        0        0        0


         STREAMBED PROPERTIES AND STREAM DIMENSIONS

 SEGMENT     BED HYD. COND.      BED THICKNESS     ELEV.-TOP OF BED     WIDTH OF STREAM     DEPTH OF STREAM    STREAM ROUGHNESS
    No.     UPPER     LOWER     UPPER     LOWER     UPPER     LOWER     UPPER     LOWER     UPPER     LOWER   CHANNEL      BANK

     1  3.500E-07 3.500E-07                                                                                 3.000E-02 4.000E-02

  EIGHT POINT CROSS-SECTION DATA FOR SEGMENTS WITH ICALC = 2
    X VALUES X VALUES START FROM LEFT SIDE LOOKING DOWNSTREAM

     SEGMENT NO.        X1        X2        X3        X4        X5        X6        X7        X8
            1      0.000E+00 2.000E+00 4.000E+00 6.000E+00 8.000E+00 1.000E+01 1.200E+01 1.400E+01

    Z VALUES ARE RELATIVE TO STREAMBED ELEVATION

     SEGMENT NO.          Z1        Z2        Z3        Z4        Z5        Z6        Z7        Z8
            1      6.000E+00 4.500E+00 3.500E+00 0.000E+00 3.000E-01 3.500E+00 4.500E+00 6.000E+00



 
 SOLVING FOR HEAD 

 NO OUTPUT CONTROL FOR STRESS PERIOD    9   TIME STEP   1
 
 SOLVING FOR HEAD 

 NO OUTPUT CONTROL FOR STRESS PERIOD    9   TIME STEP   2
 
 SOLVING FOR HEAD 

 NO OUTPUT CONTROL FOR STRESS PERIOD    9   TIME STEP   3
 
 SOLVING FOR HEAD 

 NO OUTPUT CONTROL FOR STRESS PERIOD    9   TIME STEP   4
 
 SOLVING FOR HEAD 

 NO OUTPUT CONTROL FOR STRESS PERIOD    9   TIME STEP   5
 
 SOLVING FOR HEAD 

 NO OUTPUT CONTROL FOR STRESS PERIOD    9   TIME STEP   6
 
 SOLVING FOR HEAD 

 NO OUTPUT CONTROL FOR STRESS PERIOD    9   TIME STEP   7
 
 SOLVING FOR HEAD 

 NO OUTPUT CONTROL FOR STRESS PERIOD    9   TIME STEP   8
 
 SOLVING FOR HEAD 

 NO OUTPUT CONTROL FOR STRESS PERIOD    9   TIME STEP   9
 
 SOLVING FOR HEAD 

 NO OUTPUT CONTROL FOR STRESS PERIOD    9   TIME STEP  10
 
 SOLVING FOR HEAD 

 NO OUTPUT CONTROL FOR STRESS PERIOD    9   TIME STEP  11
 
 SOLVING FOR HEAD 

 NO OUTPUT CONTROL FOR STRESS PERIOD    9   TIME STEP  12
 
 SOLVING FOR HEAD 

 NO OUTPUT CONTROL FOR STRESS PERIOD    9   TIME STEP  13
 
 SOLVING FOR HEAD 

 NO OUTPUT CONTROL FOR STRESS PERIOD    9   TIME STEP  14
 
 SOLVING FOR HEAD 

 NO OUTPUT CONTROL FOR STRESS PERIOD    9   TIME STEP  15
 
 SOLVING FOR HEAD 

 NO OUTPUT CONTROL FOR STRESS PERIOD    9   TIME STEP  16
 
 SOLVING FOR HEAD 

 NO OUTPUT CONTROL FOR STRESS PERIOD    9   TIME STEP  17
 
 SOLVING FOR HEAD 

 NO OUTPUT CONTROL FOR STRESS PERIOD    9   TIME STEP  18
 
 SOLVING FOR HEAD 

 NO OUTPUT CONTROL FOR STRESS PERIOD    9   TIME STEP  19
 
 SOLVING FOR HEAD 

 NO OUTPUT CONTROL FOR STRESS PERIOD    9   TIME STEP  20
 
 SOLVING FOR HEAD 

 NO OUTPUT CONTROL FOR STRESS PERIOD    9   TIME STEP  21
 
 SOLVING FOR HEAD 

 NO OUTPUT CONTROL FOR STRESS PERIOD    9   TIME STEP  22
 
 SOLVING FOR HEAD 

 NO OUTPUT CONTROL FOR STRESS PERIOD    9   TIME STEP  23
 
 SOLVING FOR HEAD 

 NO OUTPUT CONTROL FOR STRESS PERIOD    9   TIME STEP  24
 
 SOLVING FOR HEAD 

 NO OUTPUT CONTROL FOR STRESS PERIOD    9   TIME STEP  25
 
 SOLVING FOR HEAD 

 NO OUTPUT CONTROL FOR STRESS PERIOD    9   TIME STEP  26
 
 SOLVING FOR HEAD 

 NO OUTPUT CONTROL FOR STRESS PERIOD    9   TIME STEP  27
 
 SOLVING FOR HEAD 

 NO OUTPUT CONTROL FOR STRESS PERIOD    9   TIME STEP  28
 
 SOLVING FOR HEAD 

 NO OUTPUT CONTROL FOR STRESS PERIOD    9   TIME STEP  29
 
 SOLVING FOR HEAD 

 NO OUTPUT CONTROL FOR STRESS PERIOD    9   TIME STEP  30
1
  VOLUMETRIC BUDGET FOR UNSATURATED ZONE BENEATH STREAMS AT END OF TIME STEP  30 STRESS PERIOD   9
  ------------------------------------------------------------------------------------------------

    CUMULATIVE VOLUMES             L**3    RATES FOR THIS TIME STEP         L**3/T
    ------------------                     ------------------------


          STREAM LOSS =     11622823.0000            STREAM LOSS =            0.4363
    CHANGE IN STORAGE =       793889.5625      CHANGE IN STORAGE =       -1.9278E-02
       RECHARGE TO GW =     10829100.0000         RECHARGE TO GW =            0.4556

             TOTAL IN =     11622823.0000               TOTAL IN =            0.4555

            TOTAL OUT =     11622990.0000              TOTAL OUT =            0.4556

             IN - OUT =         -167.0000               IN - OUT =       -7.1228E-06

  PERCENT DISCREPANCY =            0.00      PERCENT DISCREPANCY =             0.00



1
  VOLUMETRIC BUDGET FOR ENTIRE MODEL AT END OF TIME STEP 30 IN STRESS PERIOD   9
  ------------------------------------------------------------------------------

     CUMULATIVE VOLUMES      L**3       RATES FOR THIS TIME STEP      L**3/T
     ------------------                 ------------------------

           IN:                                      IN:
           ---                                      ---
             STORAGE =     7496080.5000               STORAGE =           0.1025
       CONSTANT HEAD =           0.0000         CONSTANT HEAD =           0.0000
     HEAD DEP BOUNDS =           0.0000       HEAD DEP BOUNDS =           0.0000
      STREAM LEAKAGE =    10829126.0000        STREAM LEAKAGE =           0.4556

            TOTAL IN =    18325206.0000              TOTAL IN =           0.5580

          OUT:                                     OUT:
          ----                                     ----
             STORAGE =     6626955.0000               STORAGE =           0.2320
       CONSTANT HEAD =           0.0000         CONSTANT HEAD =           0.0000
     HEAD DEP BOUNDS =    11698057.0000       HEAD DEP BOUNDS =           0.3259
      STREAM LEAKAGE =           0.0000        STREAM LEAKAGE =           0.0000

           TOTAL OUT =    18325012.0000             TOTAL OUT =           0.5579

            IN - OUT =         194.0000              IN - OUT =       1.0157E-04

 PERCENT DISCREPANCY =           0.00     PERCENT DISCREPANCY =           0.02






          TIME SUMMARY AT END OF TIME STEP  30 IN STRESS PERIOD    9
                    SECONDS     MINUTES      HOURS       DAYS        YEARS
                    -----------------------------------------------------------
   TIME STEP LENGTH 2.49961E+05  4166.0      69.434      2.8931     7.92080E-03
 STRESS PERIOD TIME 2.59200E+06  43200.      720.00      30.000     8.21355E-02
         TOTAL TIME 2.33280E+07 3.88800E+05  6480.0      270.00     0.73922    
1
1
                            STRESS PERIOD NO.   10, LENGTH =   2592000.    
                            -----------------------------------------------

                              NUMBER OF TIME STEPS =    30

                               MULTIPLIER FOR DELT =     1.100

                            INITIAL TIME STEP SIZE =   15757.40    

 REUSING NON-PARAMETER GHB CELLS FROM LAST STRESS PERIOD

      7 GHB CELLS



 CLASSIFICATION & COUNT OF STREAM SEGMENTS BASED ON SOURCE OF INFLOW:

                HEADWATER     DIVERSION     RECEIVES TRIBUTARY FLOW
                ---------     ---------     -----------------------
                     1              0               0



                    INPUT DATA FOR EACH STREAM SEGMENT
 ---------------------------------------------------------------------------------------------

 SEGMENT    SEG.     INFLOW   OVERLAND   STREAM    STREAM   ICALC  OUTFLOW  DIVERSION PRIORITY
    NO.    LENGTH     RATE     RUNOFF      ET       PPT.    METH.  TO SEG.  FROM SEG.    NO.

      1  2.000E+04 1.134E+01 0.000E+00 0.000E+00 0.000E+00    2        0        0        0


         STREAMBED PROPERTIES AND STREAM DIMENSIONS

 SEGMENT     BED HYD. COND.      BED THICKNESS     ELEV.-TOP OF BED     WIDTH OF STREAM     DEPTH OF STREAM    STREAM ROUGHNESS
    No.     UPPER     LOWER     UPPER     LOWER     UPPER     LOWER     UPPER     LOWER     UPPER     LOWER   CHANNEL      BANK

     1  3.500E-07 3.500E-07                                                                                 3.000E-02 4.000E-02

  EIGHT POINT CROSS-SECTION DATA FOR SEGMENTS WITH ICALC = 2
    X VALUES X VALUES START FROM LEFT SIDE LOOKING DOWNSTREAM

     SEGMENT NO.        X1        X2        X3        X4        X5        X6        X7        X8
            1      0.000E+00 2.000E+00 4.000E+00 6.000E+00 8.000E+00 1.000E+01 1.200E+01 1.400E+01

    Z VALUES ARE RELATIVE TO STREAMBED ELEVATION

     SEGMENT NO.          Z1        Z2        Z3        Z4        Z5        Z6        Z7        Z8
            1      6.000E+00 4.500E+00 3.500E+00 0.000E+00 3.000E-01 3.500E+00 4.500E+00 6.000E+00



 
 SOLVING FOR HEAD 

 NO OUTPUT CONTROL FOR STRESS PERIOD   10   TIME STEP   1
 
 SOLVING FOR HEAD 

 NO OUTPUT CONTROL FOR STRESS PERIOD   10   TIME STEP   2
 
 SOLVING FOR HEAD 

 NO OUTPUT CONTROL FOR STRESS PERIOD   10   TIME STEP   3
 
 SOLVING FOR HEAD 

 NO OUTPUT CONTROL FOR STRESS PERIOD   10   TIME STEP   4
 
 SOLVING FOR HEAD 

 NO OUTPUT CONTROL FOR STRESS PERIOD   10   TIME STEP   5
 
 SOLVING FOR HEAD 

 NO OUTPUT CONTROL FOR STRESS PERIOD   10   TIME STEP   6
 
 SOLVING FOR HEAD 

 NO OUTPUT CONTROL FOR STRESS PERIOD   10   TIME STEP   7
 
 SOLVING FOR HEAD 

 NO OUTPUT CONTROL FOR STRESS PERIOD   10   TIME STEP   8
 
 SOLVING FOR HEAD 

 NO OUTPUT CONTROL FOR STRESS PERIOD   10   TIME STEP   9
 
 SOLVING FOR HEAD 

 NO OUTPUT CONTROL FOR STRESS PERIOD   10   TIME STEP  10
 
 SOLVING FOR HEAD 

 NO OUTPUT CONTROL FOR STRESS PERIOD   10   TIME STEP  11
 
 SOLVING FOR HEAD 

 NO OUTPUT CONTROL FOR STRESS PERIOD   10   TIME STEP  12
 
 SOLVING FOR HEAD 

 NO OUTPUT CONTROL FOR STRESS PERIOD   10   TIME STEP  13
 
 SOLVING FOR HEAD 

 NO OUTPUT CONTROL FOR STRESS PERIOD   10   TIME STEP  14
 
 SOLVING FOR HEAD 

 NO OUTPUT CONTROL FOR STRESS PERIOD   10   TIME STEP  15
 
 SOLVING FOR HEAD 

 NO OUTPUT CONTROL FOR STRESS PERIOD   10   TIME STEP  16
 
 SOLVING FOR HEAD 

 NO OUTPUT CONTROL FOR STRESS PERIOD   10   TIME STEP  17
 
 SOLVING FOR HEAD 

 NO OUTPUT CONTROL FOR STRESS PERIOD   10   TIME STEP  18
 
 SOLVING FOR HEAD 

 NO OUTPUT CONTROL FOR STRESS PERIOD   10   TIME STEP  19
 
 SOLVING FOR HEAD 

 NO OUTPUT CONTROL FOR STRESS PERIOD   10   TIME STEP  20
 
 SOLVING FOR HEAD 

 NO OUTPUT CONTROL FOR STRESS PERIOD   10   TIME STEP  21
 
 SOLVING FOR HEAD 

 NO OUTPUT CONTROL FOR STRESS PERIOD   10   TIME STEP  22
 
 SOLVING FOR HEAD 

 NO OUTPUT CONTROL FOR STRESS PERIOD   10   TIME STEP  23
 
 SOLVING FOR HEAD 

 NO OUTPUT CONTROL FOR STRESS PERIOD   10   TIME STEP  24
 
 SOLVING FOR HEAD 

 NO OUTPUT CONTROL FOR STRESS PERIOD   10   TIME STEP  25
 
 SOLVING FOR HEAD 

 NO OUTPUT CONTROL FOR STRESS PERIOD   10   TIME STEP  26
 
 SOLVING FOR HEAD 

 NO OUTPUT CONTROL FOR STRESS PERIOD   10   TIME STEP  27
 
 SOLVING FOR HEAD 

 NO OUTPUT CONTROL FOR STRESS PERIOD   10   TIME STEP  28
 
 SOLVING FOR HEAD 

 NO OUTPUT CONTROL FOR STRESS PERIOD   10   TIME STEP  29
 
 SOLVING FOR HEAD 

 OUTPUT CONTROL FOR STRESS PERIOD   10   TIME STEP  30
    PRINT HEAD FOR ALL LAYERS
    PRINT BUDGET
    SAVE BUDGET

  HEAD DEP BOUNDS   PERIOD   10   STEP  30
 BOUNDARY      1   LAYER   1   ROW     1   COL   100   RATE   -4.569503E-02
 BOUNDARY      2   LAYER   1   ROW     2   COL   100   RATE   -4.576595E-02
 BOUNDARY      3   LAYER   1   ROW     3   COL   100   RATE   -4.556068E-02
 BOUNDARY      4   LAYER   1   ROW     4   COL   100   RATE   -3.528032E-02
 BOUNDARY      5   LAYER   1   ROW     5   COL   100   RATE   -4.556068E-02
 BOUNDARY      6   LAYER   1   ROW     6   COL   100   RATE   -4.576595E-02
 BOUNDARY      7   LAYER   1   ROW     7   COL   100   RATE   -4.569502E-02



 STREAM LISTING     PERIOD     10   STEP       30

 LAYER ROW COL. STREAM  RCH.   FLOW INTO    STREAM     FLOW OUT OF   OVRLND.    DIRECT     STREAM      STREAM      STREAM     STREAM  STREAMBED   FLOW TO   CHNG. UNSAT. 
                SEG.NO.  NO.   STRM. RCH.    LOSS       STRM. RCH.   RUNOFF     PRECIP       ET         HEAD        DEPTH      WIDTH  CONDCTNC.   WAT. TAB.   STORAGE

   1    4    1     1     1    1.1340E+01  3.2798E-03   1.1337E+01  0.000E+00  0.000E+00  0.000E+00  1.42414E+02  2.564E+00  4.880E+00  1.070E-03  3.730E-03 -4.502E-04
   1    4    2     1     2    1.1337E+01  3.2791E-03   1.1333E+01  0.000E+00  0.000E+00  0.000E+00  1.42114E+02  2.564E+00  4.880E+00  1.070E-03  3.722E-03 -4.426E-04
   1    4    3     1     3    1.1333E+01  3.2783E-03   1.1330E+01  0.000E+00  0.000E+00  0.000E+00  1.41813E+02  2.563E+00  4.879E+00  1.070E-03  3.713E-03 -4.350E-04
   1    4    4     1     4    1.1330E+01  3.2775E-03   1.1327E+01  0.000E+00  0.000E+00  0.000E+00  1.41513E+02  2.563E+00  4.879E+00  1.070E-03  3.705E-03 -4.274E-04
   1    4    5     1     5    1.1327E+01  3.2768E-03   1.1324E+01  0.000E+00  0.000E+00  0.000E+00  1.41213E+02  2.563E+00  4.879E+00  1.070E-03  3.697E-03 -4.198E-04
   1    4    6     1     6    1.1324E+01  3.2760E-03   1.1320E+01  0.000E+00  0.000E+00  0.000E+00  1.40912E+02  2.562E+00  4.878E+00  1.070E-03  3.688E-03 -4.121E-04
   1    4    7     1     7    1.1320E+01  3.2752E-03   1.1317E+01  0.000E+00  0.000E+00  0.000E+00  1.40612E+02  2.562E+00  4.878E+00  1.070E-03  3.680E-03 -4.044E-04
   1    4    8     1     8    1.1317E+01  3.2744E-03   1.1314E+01  0.000E+00  0.000E+00  0.000E+00  1.40312E+02  2.562E+00  4.877E+00  1.070E-03  3.671E-03 -3.968E-04
   1    4    9     1     9    1.1314E+01  3.2737E-03   1.1311E+01  0.000E+00  0.000E+00  0.000E+00  1.40011E+02  2.561E+00  4.877E+00  1.069E-03  3.663E-03 -3.891E-04
   1    4   10     1    10    1.1311E+01  3.2729E-03   1.1307E+01  0.000E+00  0.000E+00  0.000E+00  1.39711E+02  2.561E+00  4.876E+00  1.069E-03  3.654E-03 -3.814E-04
   1    4   11     1    11    1.1307E+01  3.2721E-03   1.1304E+01  0.000E+00  0.000E+00  0.000E+00  1.39410E+02  2.560E+00  4.876E+00  1.069E-03  3.646E-03 -3.738E-04
   1    4   12     1    12    1.1304E+01  3.2714E-03   1.1301E+01  0.000E+00  0.000E+00  0.000E+00  1.39110E+02  2.560E+00  4.875E+00  1.069E-03  3.643E-03 -3.715E-04
   1    4   13     1    13    1.1301E+01  3.2706E-03   1.1297E+01  0.000E+00  0.000E+00  0.000E+00  1.38810E+02  2.560E+00  4.875E+00  1.069E-03  3.641E-03 -3.707E-04
   1    4   14     1    14    1.1297E+01  3.2698E-03   1.1294E+01  0.000E+00  0.000E+00  0.000E+00  1.38509E+02  2.559E+00  4.875E+00  1.069E-03  3.640E-03 -3.698E-04
   1    4   15     1    15    1.1294E+01  3.2690E-03   1.1291E+01  0.000E+00  0.000E+00  0.000E+00  1.38209E+02  2.559E+00  4.874E+00  1.069E-03  3.636E-03 -3.675E-04
   1    4   16     1    16    1.1291E+01  3.2683E-03   1.1288E+01  0.000E+00  0.000E+00  0.000E+00  1.37909E+02  2.559E+00  4.874E+00  1.069E-03  3.627E-03 -3.583E-04
   1    4   17     1    17    1.1288E+01  3.2675E-03   1.1284E+01  0.000E+00  0.000E+00  0.000E+00  1.37608E+02  2.558E+00  4.873E+00  1.068E-03  3.617E-03 -3.491E-04
   1    4   18     1    18    1.1284E+01  3.2667E-03   1.1281E+01  0.000E+00  0.000E+00  0.000E+00  1.37308E+02  2.558E+00  4.873E+00  1.068E-03  3.607E-03 -3.399E-04
   1    4   19     1    19    1.1281E+01  3.2660E-03   1.1278E+01  0.000E+00  0.000E+00  0.000E+00  1.37007E+02  2.557E+00  4.872E+00  1.068E-03  3.597E-03 -3.307E-04
   1    4   20     1    20    1.1278E+01  3.2652E-03   1.1275E+01  0.000E+00  0.000E+00  0.000E+00  1.36707E+02  2.557E+00  4.872E+00  1.068E-03  3.587E-03 -3.216E-04
   1    4   21     1    21    1.1275E+01  3.2644E-03   1.1271E+01  0.000E+00  0.000E+00  0.000E+00  1.36407E+02  2.557E+00  4.871E+00  1.068E-03  3.580E-03 -3.157E-04
   1    4   22     1    22    1.1271E+01  3.2637E-03   1.1268E+01  0.000E+00  0.000E+00  0.000E+00  1.36106E+02  2.556E+00  4.871E+00  1.068E-03  3.579E-03 -3.149E-04
   1    4   23     1    23    1.1268E+01  3.2629E-03   1.1265E+01  0.000E+00  0.000E+00  0.000E+00  1.35806E+02  2.556E+00  4.871E+00  1.068E-03  3.577E-03 -3.141E-04
   1    4   24     1    24    1.1265E+01  3.2621E-03   1.1261E+01  0.000E+00  0.000E+00  0.000E+00  1.35506E+02  2.556E+00  4.870E+00  1.068E-03  3.575E-03 -3.132E-04
   1    4   25     1    25    1.1261E+01  3.2614E-03   1.1258E+01  0.000E+00  0.000E+00  0.000E+00  1.35205E+02  2.555E+00  4.870E+00  1.067E-03  3.573E-03 -3.113E-04
   1    4   26     1    26    1.1258E+01  3.2606E-03   1.1255E+01  0.000E+00  0.000E+00  0.000E+00  1.34905E+02  2.555E+00  4.869E+00  1.067E-03  3.562E-03 -3.019E-04
   1    4   27     1    27    1.1255E+01  3.2598E-03   1.1252E+01  0.000E+00  0.000E+00  0.000E+00  1.34604E+02  2.554E+00  4.869E+00  1.067E-03  3.552E-03 -2.924E-04
   1    4   28     1    28    1.1252E+01  3.2591E-03   1.1248E+01  0.000E+00  0.000E+00  0.000E+00  1.34304E+02  2.554E+00  4.868E+00  1.067E-03  3.542E-03 -2.830E-04
   1    4   29     1    29    1.1248E+01  3.2583E-03   1.1245E+01  0.000E+00  0.000E+00  0.000E+00  1.34004E+02  2.554E+00  4.868E+00  1.067E-03  3.532E-03 -2.735E-04
   1    4   30     1    30    1.1245E+01  3.2575E-03   1.1242E+01  0.000E+00  0.000E+00  0.000E+00  1.33703E+02  2.553E+00  4.867E+00  1.067E-03  3.521E-03 -2.640E-04
   1    4   31     1    31    1.1242E+01  3.2567E-03   1.1239E+01  0.000E+00  0.000E+00  0.000E+00  1.33403E+02  2.553E+00  4.867E+00  1.067E-03  3.511E-03 -2.545E-04
   1    4   32     1    32    1.1239E+01  3.2560E-03   1.1235E+01  0.000E+00  0.000E+00  0.000E+00  1.33103E+02  2.553E+00  4.867E+00  1.067E-03  3.501E-03 -2.450E-04
   1    4   33     1    33    1.1235E+01  3.2552E-03   1.1232E+01  0.000E+00  0.000E+00  0.000E+00  1.32802E+02  2.552E+00  4.866E+00  1.067E-03  3.491E-03 -2.355E-04
   1    4   34     1    34    1.1232E+01  3.2544E-03   1.1229E+01  0.000E+00  0.000E+00  0.000E+00  1.32502E+02  2.552E+00  4.866E+00  1.066E-03  3.486E-03 -2.319E-04
   1    4   35     1    35    1.1229E+01  3.2537E-03   1.1226E+01  0.000E+00  0.000E+00  0.000E+00  1.32201E+02  2.551E+00  4.865E+00  1.066E-03  3.484E-03 -2.307E-04
   1    4   36     1    36    1.1226E+01  3.2529E-03   1.1222E+01  0.000E+00  0.000E+00  0.000E+00  1.31901E+02  2.551E+00  4.865E+00  1.066E-03  3.482E-03 -2.294E-04
   1    4   37     1    37    1.1222E+01  3.2521E-03   1.1219E+01  0.000E+00  0.000E+00  0.000E+00  1.31601E+02  2.551E+00  4.864E+00  1.066E-03  3.480E-03 -2.280E-04
   1    4   38     1    38    1.1219E+01  3.2514E-03   1.1216E+01  0.000E+00  0.000E+00  0.000E+00  1.31300E+02  2.550E+00  4.864E+00  1.066E-03  3.478E-03 -2.266E-04
   1    4   39     1    39    1.1216E+01  3.2506E-03   1.1213E+01  0.000E+00  0.000E+00  0.000E+00  1.31000E+02  2.550E+00  4.863E+00  1.066E-03  3.476E-03 -2.251E-04
   1    4   40     1    40    1.1213E+01  3.2498E-03   1.1209E+01  0.000E+00  0.000E+00  0.000E+00  1.30700E+02  2.550E+00  4.863E+00  1.066E-03  3.473E-03 -2.235E-04
   1    4   41     1    41    1.1209E+01  3.2491E-03   1.1206E+01  0.000E+00  0.000E+00  0.000E+00  1.30399E+02  2.549E+00  4.863E+00  1.066E-03  3.471E-03 -2.218E-04
   1    4   42     1    42    1.1206E+01  3.2483E-03   1.1203E+01  0.000E+00  0.000E+00  0.000E+00  1.30099E+02  2.549E+00  4.862E+00  1.065E-03  3.468E-03 -2.201E-04
   1    4   43     1    43    1.1203E+01  3.2475E-03   1.1200E+01  0.000E+00  0.000E+00  0.000E+00  1.29799E+02  2.549E+00  4.862E+00  1.065E-03  3.466E-03 -2.182E-04
   1    4   44     1    44    1.1200E+01  3.2468E-03   1.1196E+01  0.000E+00  0.000E+00  0.000E+00  1.29498E+02  2.548E+00  4.861E+00  1.065E-03  3.463E-03 -2.163E-04
   1    4   45     1    45    1.1196E+01  3.2460E-03   1.1193E+01  0.000E+00  0.000E+00  0.000E+00  1.29198E+02  2.548E+00  4.861E+00  1.065E-03  3.460E-03 -2.142E-04
   1    4   46     1    46    1.1193E+01  3.2453E-03   1.1190E+01  0.000E+00  0.000E+00  0.000E+00  1.28897E+02  2.547E+00  4.860E+00  1.065E-03  3.457E-03 -2.121E-04
   1    4   47     1    47    1.1190E+01  3.2445E-03   1.1187E+01  0.000E+00  0.000E+00  0.000E+00  1.28597E+02  2.547E+00  4.860E+00  1.065E-03  3.454E-03 -2.099E-04
   1    4   48     1    48    1.1187E+01  3.2437E-03   1.1183E+01  0.000E+00  0.000E+00  0.000E+00  1.28297E+02  2.547E+00  4.859E+00  1.065E-03  3.451E-03 -2.076E-04
   1    4   49     1    49    1.1183E+01  3.2430E-03   1.1180E+01  0.000E+00  0.000E+00  0.000E+00  1.27996E+02  2.546E+00  4.859E+00  1.065E-03  3.448E-03 -2.052E-04
   1    4   50     1    50    1.1180E+01  3.2422E-03   1.1177E+01  0.000E+00  0.000E+00  0.000E+00  1.27696E+02  2.546E+00  4.859E+00  1.064E-03  3.445E-03 -2.027E-04
   1    4   51     1    51    1.1177E+01  3.2414E-03   1.1174E+01  0.000E+00  0.000E+00  0.000E+00  1.27396E+02  2.546E+00  4.858E+00  1.064E-03  3.442E-03 -2.001E-04
   1    4   52     1    52    1.1174E+01  3.2407E-03   1.1170E+01  0.000E+00  0.000E+00  0.000E+00  1.27095E+02  2.545E+00  4.858E+00  1.064E-03  3.438E-03 -1.974E-04
   1    4   53     1    53    1.1170E+01  3.2399E-03   1.1167E+01  0.000E+00  0.000E+00  0.000E+00  1.26795E+02  2.545E+00  4.857E+00  1.064E-03  3.430E-03 -1.901E-04
   1    4   54     1    54    1.1167E+01  3.2391E-03   1.1164E+01  0.000E+00  0.000E+00  0.000E+00  1.26494E+02  2.544E+00  4.857E+00  1.064E-03  3.420E-03 -1.811E-04
   1    4   55     1    55    1.1164E+01  3.2384E-03   1.1161E+01  0.000E+00  0.000E+00  0.000E+00  1.26194E+02  2.544E+00  4.856E+00  1.064E-03  3.411E-03 -1.724E-04
   1    4   56     1    56    1.1161E+01  3.2376E-03   1.1158E+01  0.000E+00  0.000E+00  0.000E+00  1.25894E+02  2.544E+00  4.856E+00  1.064E-03  3.402E-03 -1.640E-04
   1    4   57     1    57    1.1158E+01  3.2368E-03   1.1154E+01  0.000E+00  0.000E+00  0.000E+00  1.25593E+02  2.543E+00  4.855E+00  1.064E-03  3.393E-03 -1.560E-04
   1    4   58     1    58    1.1154E+01  3.2361E-03   1.1151E+01  0.000E+00  0.000E+00  0.000E+00  1.25293E+02  2.543E+00  4.855E+00  1.063E-03  3.384E-03 -1.484E-04
   1    4   59     1    59    1.1151E+01  3.2353E-03   1.1148E+01  0.000E+00  0.000E+00  0.000E+00  1.24993E+02  2.543E+00  4.855E+00  1.063E-03  3.377E-03 -1.412E-04
   1    4   60     1    60    1.1148E+01  3.2346E-03   1.1145E+01  0.000E+00  0.000E+00  0.000E+00  1.24692E+02  2.542E+00  4.854E+00  1.063E-03  3.369E-03 -1.345E-04
   1    4   61     1    61    1.1145E+01  3.2338E-03   1.1141E+01  0.000E+00  0.000E+00  0.000E+00  1.24392E+02  2.542E+00  4.854E+00  1.063E-03  3.362E-03 -1.284E-04
   1    4   62     1    62    1.1141E+01  3.2330E-03   1.1138E+01  0.000E+00  0.000E+00  0.000E+00  1.24091E+02  2.541E+00  4.853E+00  1.063E-03  3.356E-03 -1.227E-04
   1    4   63     1    63    1.1138E+01  3.2323E-03   1.1135E+01  0.000E+00  0.000E+00  0.000E+00  1.23791E+02  2.541E+00  4.853E+00  1.063E-03  3.350E-03 -1.177E-04
   1    4   64     1    64    1.1135E+01  3.2315E-03   1.1132E+01  0.000E+00  0.000E+00  0.000E+00  1.23491E+02  2.541E+00  4.852E+00  1.063E-03  3.345E-03 -1.133E-04
   1    4   65     1    65    1.1132E+01  3.2307E-03   1.1128E+01  0.000E+00  0.000E+00  0.000E+00  1.23190E+02  2.540E+00  4.852E+00  1.063E-03  3.340E-03 -1.097E-04
   1    4   66     1    66    1.1128E+01  3.2300E-03   1.1125E+01  0.000E+00  0.000E+00  0.000E+00  1.22890E+02  2.540E+00  4.851E+00  1.062E-03  3.337E-03 -1.068E-04
   1    4   67     1    67    1.1125E+01  3.2292E-03   1.1122E+01  0.000E+00  0.000E+00  0.000E+00  1.22590E+02  2.540E+00  4.851E+00  1.062E-03  3.334E-03 -1.046E-04
   1    4   68     1    68    1.1122E+01  3.2285E-03   1.1119E+01  0.000E+00  0.000E+00  0.000E+00  1.22289E+02  2.539E+00  4.851E+00  1.062E-03  3.332E-03 -1.033E-04
   1    4   69     1    69    1.1119E+01  3.2277E-03   1.1115E+01  0.000E+00  0.000E+00  0.000E+00  1.21989E+02  2.539E+00  4.850E+00  1.062E-03  3.330E-03 -1.028E-04
   1    4   70     1    70    1.1115E+01  3.2269E-03   1.1112E+01  0.000E+00  0.000E+00  0.000E+00  1.21688E+02  2.538E+00  4.850E+00  1.062E-03  3.330E-03 -1.032E-04
   1    4   71     1    71    1.1112E+01  3.2262E-03   1.1109E+01  0.000E+00  0.000E+00  0.000E+00  1.21388E+02  2.538E+00  4.849E+00  1.062E-03  3.331E-03 -1.046E-04
   1    4   72     1    72    1.1109E+01  3.2254E-03   1.1106E+01  0.000E+00  0.000E+00  0.000E+00  1.21088E+02  2.538E+00  4.849E+00  1.062E-03  3.332E-03 -1.071E-04
   1    4   73     1    73    1.1106E+01  3.2246E-03   1.1103E+01  0.000E+00  0.000E+00  0.000E+00  1.20787E+02  2.537E+00  4.848E+00  1.062E-03  3.335E-03 -1.106E-04
   1    4   74     1    74    1.1103E+01  3.2239E-03   1.1099E+01  0.000E+00  0.000E+00  0.000E+00  1.20487E+02  2.537E+00  4.848E+00  1.062E-03  3.339E-03 -1.152E-04
   1    4   75     1    75    1.1099E+01  3.2231E-03   1.1096E+01  0.000E+00  0.000E+00  0.000E+00  1.20187E+02  2.537E+00  4.847E+00  1.061E-03  3.344E-03 -1.210E-04
   1    4   76     1    76    1.1096E+01  3.2224E-03   1.1093E+01  0.000E+00  0.000E+00  0.000E+00  1.19886E+02  2.536E+00  4.847E+00  1.061E-03  3.343E-03 -1.203E-04
   1    4   77     1    77    1.1093E+01  3.2216E-03   1.1090E+01  0.000E+00  0.000E+00  0.000E+00  1.19586E+02  2.536E+00  4.847E+00  1.061E-03  3.339E-03 -1.176E-04
   1    4   78     1    78    1.1090E+01  3.2208E-03   1.1086E+01  0.000E+00  0.000E+00  0.000E+00  1.19286E+02  2.536E+00  4.846E+00  1.061E-03  3.336E-03 -1.150E-04
   1    4   79     1    79    1.1086E+01  3.2201E-03   1.1083E+01  0.000E+00  0.000E+00  0.000E+00  1.18985E+02  2.535E+00  4.846E+00  1.061E-03  3.333E-03 -1.126E-04
   1    4   80     1    80    1.1083E+01  3.2193E-03   1.1080E+01  0.000E+00  0.000E+00  0.000E+00  1.18685E+02  2.535E+00  4.845E+00  1.061E-03  3.330E-03 -1.103E-04
   1    4   81     1    81    1.1080E+01  3.2186E-03   1.1077E+01  0.000E+00  0.000E+00  0.000E+00  1.18384E+02  2.534E+00  4.845E+00  1.061E-03  3.327E-03 -1.083E-04
   1    4   82     1    82    1.1077E+01  3.2178E-03   1.1074E+01  0.000E+00  0.000E+00  0.000E+00  1.18084E+02  2.534E+00  4.844E+00  1.061E-03  3.324E-03 -1.065E-04
   1    4   83     1    83    1.1074E+01  3.2170E-03   1.1070E+01  0.000E+00  0.000E+00  0.000E+00  1.17784E+02  2.534E+00  4.844E+00  1.060E-03  3.322E-03 -1.049E-04
   1    4   84     1    84    1.1070E+01  3.2163E-03   1.1067E+01  0.000E+00  0.000E+00  0.000E+00  1.17483E+02  2.533E+00  4.843E+00  1.060E-03  3.320E-03 -1.035E-04
   1    4   85     1    85    1.1067E+01  3.2155E-03   1.1064E+01  0.000E+00  0.000E+00  0.000E+00  1.17183E+02  2.533E+00  4.843E+00  1.060E-03  3.318E-03 -1.026E-04
   1    4   86     1    86    1.1064E+01  3.2148E-03   1.1061E+01  0.000E+00  0.000E+00  0.000E+00  1.16883E+02  2.533E+00  4.843E+00  1.060E-03  3.357E-03 -1.426E-04
   1    4   87     1    87    1.1061E+01  3.2140E-03   1.1058E+01  0.000E+00  0.000E+00  0.000E+00  1.16582E+02  2.532E+00  4.842E+00  1.060E-03  3.387E-03 -1.727E-04
   1    4   88     1    88    1.1058E+01  3.2132E-03   1.1054E+01  0.000E+00  0.000E+00  0.000E+00  1.16282E+02  2.532E+00  4.842E+00  1.060E-03  3.409E-03 -1.956E-04
   1    4   89     1    89    1.1054E+01  3.2125E-03   1.1051E+01  0.000E+00  0.000E+00  0.000E+00  1.15981E+02  2.531E+00  4.841E+00  1.060E-03  3.410E-03 -1.972E-04
   1    4   90     1    90    1.1051E+01  3.2117E-03   1.1048E+01  0.000E+00  0.000E+00  0.000E+00  1.15681E+02  2.531E+00  4.841E+00  1.060E-03  3.410E-03 -1.984E-04
   1    4   91     1    91    1.1048E+01  3.2110E-03   1.1045E+01  0.000E+00  0.000E+00  0.000E+00  1.15381E+02  2.531E+00  4.840E+00  1.059E-03  3.411E-03 -2.001E-04
   1    4   92     1    92    1.1045E+01  3.2102E-03   1.1041E+01  0.000E+00  0.000E+00  0.000E+00  1.15080E+02  2.530E+00  4.840E+00  1.059E-03  3.413E-03 -2.026E-04
   1    4   93     1    93    1.1041E+01  3.2094E-03   1.1038E+01  0.000E+00  0.000E+00  0.000E+00  1.14780E+02  2.530E+00  4.839E+00  1.059E-03  3.438E-03 -2.285E-04
   1    4   94     1    94    1.1038E+01  3.2087E-03   1.1035E+01  0.000E+00  0.000E+00  0.000E+00  1.14480E+02  2.530E+00  4.839E+00  1.059E-03  3.476E-03 -2.671E-04
   1    4   95     1    95    1.1035E+01  3.2079E-03   1.1032E+01  0.000E+00  0.000E+00  0.000E+00  1.14179E+02  2.529E+00  4.839E+00  1.059E-03  3.523E-03 -3.154E-04
   1    4   96     1    96    1.1032E+01  3.2072E-03   1.1029E+01  0.000E+00  0.000E+00  0.000E+00  1.13879E+02  2.529E+00  4.838E+00  1.059E-03  3.528E-03 -3.212E-04
   1    4   97     1    97    1.1029E+01  3.2064E-03   1.1025E+01  0.000E+00  0.000E+00  0.000E+00  1.13578E+02  2.528E+00  4.838E+00  1.059E-03  3.545E-03 -3.389E-04
   1    4   98     1    98    1.1025E+01  3.2057E-03   1.1022E+01  0.000E+00  0.000E+00  0.000E+00  1.13278E+02  2.528E+00  4.837E+00  1.059E-03  3.575E-03 -3.698E-04
   1    4   99     1    99    1.1022E+01  3.2049E-03   1.1019E+01  0.000E+00  0.000E+00  0.000E+00  1.12978E+02  2.528E+00  4.837E+00  1.059E-03  3.606E-03 -4.010E-04
   1    4  100     1   100    1.1019E+01  3.2041E-03   1.1016E+01  0.000E+00  0.000E+00  0.000E+00  1.12677E+02  2.527E+00  4.836E+00  1.058E-03  3.647E-03 -4.427E-04



1
  VOLUMETRIC BUDGET FOR UNSATURATED ZONE BENEATH STREAMS AT END OF TIME STEP  30 STRESS PERIOD  10
  ------------------------------------------------------------------------------------------------

    CUMULATIVE VOLUMES             L**3    RATES FOR THIS TIME STEP         L**3/T
    ------------------                     ------------------------


          STREAM LOSS =     12463114.0000            STREAM LOSS =            0.3242
    CHANGE IN STORAGE =       658389.3125      CHANGE IN STORAGE =       -2.3605E-02
       RECHARGE TO GW =     11805079.0000         RECHARGE TO GW =            0.3478

             TOTAL IN =     12463114.0000               TOTAL IN =            0.3478

            TOTAL OUT =     12463468.0000              TOTAL OUT =            0.3478

             IN - OUT =         -354.0000               IN - OUT =        1.1735E-07

  PERCENT DISCREPANCY =            0.00      PERCENT DISCREPANCY =             0.00



1
              HEAD IN LAYER   1 AT END OF TIME STEP  30 IN STRESS PERIOD   10
  ---------------------------------------------------------------------------

          1      2      3      4      5      6      7      8      9     10
         11     12     13     14     15     16     17     18     19     20
         21     22     23     24     25     26     27     28     29     30
         31     32     33     34     35     36     37     38     39     40
         41     42     43     44     45     46     47     48     49     50
         51     52     53     54     55     56     57     58     59     60
         61     62     63     64     65     66     67     68     69     70
         71     72     73     74     75     76     77     78     79     80
         81     82     83     84     85     86     87     88     89     90
         91     92     93     94     95     96     97     98     99    100
 .........................................................................
   1   108.9  108.9  108.9  108.9  108.9  108.9  108.9  108.9  108.9  108.9
       108.9  108.9  108.9  108.9  108.9  108.9  108.9  108.9  108.9  108.9
       108.9  108.9  108.9  108.9  108.9  108.9  108.9  108.9  108.9  108.9
       108.8  108.8  108.8  108.8  108.8  108.8  108.8  108.7  108.7  108.7
       108.6  108.6  108.6  108.5  108.5  108.4  108.4  108.3  108.2  108.1
       108.0  107.9  107.8  107.7  107.6  107.4  107.3  107.1  107.0  106.8
       106.6  106.3  106.1  105.8  105.6  105.3  104.9  104.6  104.2  103.9
       103.4  103.0  102.5  102.0  101.5  101.0  100.4   99.8   99.1   98.4
        97.7   96.9   96.1   95.3   94.4   93.4   92.5   91.4   90.4   89.2
        88.1   86.8   85.5   84.2   82.8   81.4   79.9   78.3   76.7   75.0
   2   108.9  108.9  108.9  108.9  108.9  108.9  108.9  108.9  108.9  108.9
       108.9  108.9  108.9  108.9  108.9  108.9  108.9  108.9  108.9  108.9
       108.9  108.9  108.9  108.9  108.9  108.9  108.9  108.9  108.9  108.9
       108.8  108.8  108.8  108.8  108.8  108.8  108.8  108.7  108.7  108.7
       108.6  108.6  108.6  108.5  108.5  108.4  108.4  108.3  108.2  108.1
       108.0  107.9  107.8  107.7  107.6  107.4  107.3  107.1  107.0  106.8
       106.6  106.3  106.1  105.8  105.6  105.3  104.9  104.6  104.2  103.9
       103.4  103.0  102.5  102.0  101.5  101.0  100.4   99.8   99.1   98.4
        97.7   96.9   96.1   95.3   94.4   93.4   92.5   91.4   90.4   89.2
        88.1   86.8   85.5   84.2   82.8   81.4   79.9   78.3   76.7   75.0
   3   108.9  108.9  108.9  108.9  108.9  108.9  108.9  108.9  108.9  108.9
       108.9  108.9  108.9  108.9  108.9  108.9  108.9  108.9  108.9  108.9
       108.9  108.9  108.9  108.9  108.9  108.9  108.9  108.9  108.9  108.9
       108.9  108.8  108.8  108.8  108.8  108.8  108.8  108.7  108.7  108.7
       108.7  108.6  108.6  108.5  108.5  108.4  108.4  108.3  108.2  108.1
       108.0  107.9  107.8  107.7  107.6  107.5  107.3  107.1  107.0  106.8
       106.6  106.3  106.1  105.8  105.6  105.3  104.9  104.6  104.2  103.9
       103.4  103.0  102.5  102.1  101.5  101.0  100.4   99.8   99.1   98.4
        97.7   96.9   96.1   95.3   94.4   93.4   92.5   91.4   90.4   89.2
        88.1   86.8   85.6   84.2   82.8   81.4   79.9   78.3   76.7   75.0
   4   108.9  108.9  108.9  108.9  108.9  108.9  108.9  108.9  108.9  108.9
       108.9  108.9  108.9  108.9  108.9  108.9  108.9  108.9  108.9  108.9
       108.9  108.9  108.9  108.9  108.9  108.9  108.9  108.9  108.9  108.9
       108.9  108.8  108.8  108.8  108.8  108.8  108.8  108.7  108.7  108.7
       108.7  108.6  108.6  108.5  108.5  108.4  108.4  108.3  108.2  108.1
       108.1  108.0  107.8  107.7  107.6  107.5  107.3  107.1  107.0  106.8
       106.6  106.3  106.1  105.8  105.6  105.3  105.0  104.6  104.3  103.9
       103.5  103.0  102.6  102.1  101.5  101.0  100.4   99.8   99.1   98.4
        97.7   96.9   96.1   95.3   94.4   93.5   92.5   91.4   90.4   89.2
        88.1   86.8   85.6   84.2   82.8   81.4   79.9   78.3   76.7   75.0
   5   108.9  108.9  108.9  108.9  108.9  108.9  108.9  108.9  108.9  108.9
       108.9  108.9  108.9  108.9  108.9  108.9  108.9  108.9  108.9  108.9
       108.9  108.9  108.9  108.9  108.9  108.9  108.9  108.9  108.9  108.9
       108.9  108.8  108.8  108.8  108.8  108.8  108.8  108.7  108.7  108.7
       108.7  108.6  108.6  108.5  108.5  108.4  108.4  108.3  108.2  108.1
       108.0  107.9  107.8  107.7  107.6  107.5  107.3  107.1  107.0  106.8
       106.6  106.3  106.1  105.8  105.6  105.3  104.9  104.6  104.2  103.9
       103.4  103.0  102.5  102.1  101.5  101.0  100.4   99.8   99.1   98.4
        97.7   96.9   96.1   95.3   94.4   93.4   92.5   91.4   90.4   89.2
        88.1   86.8   85.6   84.2   82.8   81.4   79.9   78.3   76.7   75.0
   6   108.9  108.9  108.9  108.9  108.9  108.9  108.9  108.9  108.9  108.9
       108.9  108.9  108.9  108.9  108.9  108.9  108.9  108.9  108.9  108.9
       108.9  108.9  108.9  108.9  108.9  108.9  108.9  108.9  108.9  108.9
       108.8  108.8  108.8  108.8  108.8  108.8  108.8  108.7  108.7  108.7
       108.6  108.6  108.6  108.5  108.5  108.4  108.4  108.3  108.2  108.1
       108.0  107.9  107.8  107.7  107.6  107.4  107.3  107.1  107.0  106.8
       106.6  106.3  106.1  105.8  105.6  105.3  104.9  104.6  104.2  103.9
       103.4  103.0  102.5  102.0  101.5  101.0  100.4   99.8   99.1   98.4
        97.7   96.9   96.1   95.3   94.4   93.4   92.5   91.4   90.4   89.2
        88.1   86.8   85.5   84.2   82.8   81.4   79.9   78.3   76.7   75.0
   7   108.9  108.9  108.9  108.9  108.9  108.9  108.9  108.9  108.9  108.9
       108.9  108.9  108.9  108.9  108.9  108.9  108.9  108.9  108.9  108.9
       108.9  108.9  108.9  108.9  108.9  108.9  108.9  108.9  108.9  108.9
       108.8  108.8  108.8  108.8  108.8  108.8  108.8  108.7  108.7  108.7
       108.6  108.6  108.6  108.5  108.5  108.4  108.4  108.3  108.2  108.1
       108.0  107.9  107.8  107.7  107.6  107.4  107.3  107.1  107.0  106.8
       106.6  106.3  106.1  105.8  105.6  105.3  104.9  104.6  104.2  103.9
       103.4  103.0  102.5  102.0  101.5  101.0  100.4   99.8   99.1   98.4
        97.7   96.9   96.1   95.3   94.4   93.4   92.5   91.4   90.4   89.2
        88.1   86.8   85.5   84.2   82.8   81.4   79.9   78.3   76.7   75.0
1
  VOLUMETRIC BUDGET FOR ENTIRE MODEL AT END OF TIME STEP 30 IN STRESS PERIOD  10
  ------------------------------------------------------------------------------

     CUMULATIVE VOLUMES      L**3       RATES FOR THIS TIME STEP      L**3/T
     ------------------                 ------------------------

           IN:                                      IN:
           ---                                      ---
             STORAGE =     7809566.0000               STORAGE =           0.1215
       CONSTANT HEAD =           0.0000         CONSTANT HEAD =           0.0000
     HEAD DEP BOUNDS =           0.0000       HEAD DEP BOUNDS =           0.0000
      STREAM LEAKAGE =    11805115.0000        STREAM LEAKAGE =           0.3478

            TOTAL IN =    19614680.0000              TOTAL IN =           0.4693

          OUT:                                     OUT:
          ----                                     ----
             STORAGE =     7095068.0000               STORAGE =           0.1599
       CONSTANT HEAD =           0.0000         CONSTANT HEAD =           0.0000
     HEAD DEP BOUNDS =    12519401.0000       HEAD DEP BOUNDS =           0.3093
      STREAM LEAKAGE =           0.0000        STREAM LEAKAGE =           0.0000

           TOTAL OUT =    19614468.0000             TOTAL OUT =           0.4692

            IN - OUT =         212.0000              IN - OUT =       6.1303E-05

 PERCENT DISCREPANCY =           0.00     PERCENT DISCREPANCY =           0.01






          TIME SUMMARY AT END OF TIME STEP  30 IN STRESS PERIOD   10
                    SECONDS     MINUTES      HOURS       DAYS        YEARS
                    -----------------------------------------------------------
   TIME STEP LENGTH 2.49961E+05  4166.0      69.434      2.8931     7.92080E-03
 STRESS PERIOD TIME 2.59200E+06  43200.      720.00      30.000     8.21355E-02
         TOTAL TIME 2.59200E+07 4.32000E+05  7200.0      300.00     0.82136    
1
1
                            STRESS PERIOD NO.   11, LENGTH =   2592000.    
                            -----------------------------------------------

                              NUMBER OF TIME STEPS =    30

                               MULTIPLIER FOR DELT =     1.100

                            INITIAL TIME STEP SIZE =   15757.40    

 REUSING NON-PARAMETER GHB CELLS FROM LAST STRESS PERIOD

      7 GHB CELLS



 CLASSIFICATION & COUNT OF STREAM SEGMENTS BASED ON SOURCE OF INFLOW:

                HEADWATER     DIVERSION     RECEIVES TRIBUTARY FLOW
                ---------     ---------     -----------------------
                     1              0               0



                    INPUT DATA FOR EACH STREAM SEGMENT
 ---------------------------------------------------------------------------------------------

 SEGMENT    SEG.     INFLOW   OVERLAND   STREAM    STREAM   ICALC  OUTFLOW  DIVERSION PRIORITY
    NO.    LENGTH     RATE     RUNOFF      ET       PPT.    METH.  TO SEG.  FROM SEG.    NO.

      1  2.000E+04 3.384E+00 0.000E+00 0.000E+00 0.000E+00    2        0        0        0


         STREAMBED PROPERTIES AND STREAM DIMENSIONS

 SEGMENT     BED HYD. COND.      BED THICKNESS     ELEV.-TOP OF BED     WIDTH OF STREAM     DEPTH OF STREAM    STREAM ROUGHNESS
    No.     UPPER     LOWER     UPPER     LOWER     UPPER     LOWER     UPPER     LOWER     UPPER     LOWER   CHANNEL      BANK

     1  3.500E-07 3.500E-07                                                                                 3.000E-02 4.000E-02

  EIGHT POINT CROSS-SECTION DATA FOR SEGMENTS WITH ICALC = 2
    X VALUES X VALUES START FROM LEFT SIDE LOOKING DOWNSTREAM

     SEGMENT NO.        X1        X2        X3        X4        X5        X6        X7        X8
            1      0.000E+00 2.000E+00 4.000E+00 6.000E+00 8.000E+00 1.000E+01 1.200E+01 1.400E+01

    Z VALUES ARE RELATIVE TO STREAMBED ELEVATION

     SEGMENT NO.          Z1        Z2        Z3        Z4        Z5        Z6        Z7        Z8
            1      6.000E+00 4.500E+00 3.500E+00 0.000E+00 3.000E-01 3.500E+00 4.500E+00 6.000E+00



 
 SOLVING FOR HEAD 

 NO OUTPUT CONTROL FOR STRESS PERIOD   11   TIME STEP   1
 
 SOLVING FOR HEAD 

 NO OUTPUT CONTROL FOR STRESS PERIOD   11   TIME STEP   2
 
 SOLVING FOR HEAD 

 NO OUTPUT CONTROL FOR STRESS PERIOD   11   TIME STEP   3
 
 SOLVING FOR HEAD 

 NO OUTPUT CONTROL FOR STRESS PERIOD   11   TIME STEP   4
 
 SOLVING FOR HEAD 

 NO OUTPUT CONTROL FOR STRESS PERIOD   11   TIME STEP   5
 
 SOLVING FOR HEAD 

 NO OUTPUT CONTROL FOR STRESS PERIOD   11   TIME STEP   6
 
 SOLVING FOR HEAD 

 NO OUTPUT CONTROL FOR STRESS PERIOD   11   TIME STEP   7
 
 SOLVING FOR HEAD 

 NO OUTPUT CONTROL FOR STRESS PERIOD   11   TIME STEP   8
 
 SOLVING FOR HEAD 

 NO OUTPUT CONTROL FOR STRESS PERIOD   11   TIME STEP   9
 
 SOLVING FOR HEAD 

 NO OUTPUT CONTROL FOR STRESS PERIOD   11   TIME STEP  10
 
 SOLVING FOR HEAD 

 NO OUTPUT CONTROL FOR STRESS PERIOD   11   TIME STEP  11
 
 SOLVING FOR HEAD 

 NO OUTPUT CONTROL FOR STRESS PERIOD   11   TIME STEP  12
 
 SOLVING FOR HEAD 

 NO OUTPUT CONTROL FOR STRESS PERIOD   11   TIME STEP  13
 
 SOLVING FOR HEAD 

 NO OUTPUT CONTROL FOR STRESS PERIOD   11   TIME STEP  14
 
 SOLVING FOR HEAD 

 NO OUTPUT CONTROL FOR STRESS PERIOD   11   TIME STEP  15
 
 SOLVING FOR HEAD 

 NO OUTPUT CONTROL FOR STRESS PERIOD   11   TIME STEP  16
 
 SOLVING FOR HEAD 

 NO OUTPUT CONTROL FOR STRESS PERIOD   11   TIME STEP  17
 
 SOLVING FOR HEAD 

 NO OUTPUT CONTROL FOR STRESS PERIOD   11   TIME STEP  18
 
 SOLVING FOR HEAD 

 NO OUTPUT CONTROL FOR STRESS PERIOD   11   TIME STEP  19
 
 SOLVING FOR HEAD 

 NO OUTPUT CONTROL FOR STRESS PERIOD   11   TIME STEP  20
 
 SOLVING FOR HEAD 

 NO OUTPUT CONTROL FOR STRESS PERIOD   11   TIME STEP  21
 
 SOLVING FOR HEAD 

 NO OUTPUT CONTROL FOR STRESS PERIOD   11   TIME STEP  22
 
 SOLVING FOR HEAD 

 NO OUTPUT CONTROL FOR STRESS PERIOD   11   TIME STEP  23
 
 SOLVING FOR HEAD 

 NO OUTPUT CONTROL FOR STRESS PERIOD   11   TIME STEP  24
 
 SOLVING FOR HEAD 

 NO OUTPUT CONTROL FOR STRESS PERIOD   11   TIME STEP  25
 
 SOLVING FOR HEAD 

 NO OUTPUT CONTROL FOR STRESS PERIOD   11   TIME STEP  26
 
 SOLVING FOR HEAD 

 NO OUTPUT CONTROL FOR STRESS PERIOD   11   TIME STEP  27
 
 SOLVING FOR HEAD 

 NO OUTPUT CONTROL FOR STRESS PERIOD   11   TIME STEP  28
 
 SOLVING FOR HEAD 

 NO OUTPUT CONTROL FOR STRESS PERIOD   11   TIME STEP  29
 
 SOLVING FOR HEAD 

 NO OUTPUT CONTROL FOR STRESS PERIOD   11   TIME STEP  30
1
  VOLUMETRIC BUDGET FOR UNSATURATED ZONE BENEATH STREAMS AT END OF TIME STEP  30 STRESS PERIOD  11
  ------------------------------------------------------------------------------------------------

    CUMULATIVE VOLUMES             L**3    RATES FOR THIS TIME STEP         L**3/T
    ------------------                     ------------------------


          STREAM LOSS =     12791123.0000            STREAM LOSS =            0.1266
    CHANGE IN STORAGE =       483617.6250      CHANGE IN STORAGE =       -1.6227E-02
       RECHARGE TO GW =     12308011.0000         RECHARGE TO GW =            0.1428

             TOTAL IN =     12791123.0000               TOTAL IN =            0.1428

            TOTAL OUT =     12791629.0000              TOTAL OUT =            0.1428

             IN - OUT =         -506.0000               IN - OUT =        1.8235E-06

  PERCENT DISCREPANCY =            0.00      PERCENT DISCREPANCY =             0.00



1
  VOLUMETRIC BUDGET FOR ENTIRE MODEL AT END OF TIME STEP 30 IN STRESS PERIOD  11
  ------------------------------------------------------------------------------

     CUMULATIVE VOLUMES      L**3       RATES FOR THIS TIME STEP      L**3/T
     ------------------                 ------------------------

           IN:                                      IN:
           ---                                      ---
             STORAGE =     8284577.5000               STORAGE =           0.1950
       CONSTANT HEAD =           0.0000         CONSTANT HEAD =           0.0000
     HEAD DEP BOUNDS =           0.0000       HEAD DEP BOUNDS =           0.0000
      STREAM LEAKAGE =    12308056.0000        STREAM LEAKAGE =           0.1428

            TOTAL IN =    20592634.0000              TOTAL IN =           0.3377

          OUT:                                     OUT:
          ----                                     ----
             STORAGE =     7299341.5000               STORAGE =       4.9300E-02
       CONSTANT HEAD =           0.0000         CONSTANT HEAD =           0.0000
     HEAD DEP BOUNDS =    13293113.0000       HEAD DEP BOUNDS =           0.2885
      STREAM LEAKAGE =           0.0000        STREAM LEAKAGE =           0.0000

           TOTAL OUT =    20592454.0000             TOTAL OUT =           0.3378

            IN - OUT =         180.0000              IN - OUT =      -2.8670E-05

 PERCENT DISCREPANCY =           0.00     PERCENT DISCREPANCY =          -0.01






          TIME SUMMARY AT END OF TIME STEP  30 IN STRESS PERIOD   11
                    SECONDS     MINUTES      HOURS       DAYS        YEARS
                    -----------------------------------------------------------
   TIME STEP LENGTH 2.49961E+05  4166.0      69.434      2.8931     7.92080E-03
 STRESS PERIOD TIME 2.59200E+06  43200.      720.00      30.000     8.21355E-02
         TOTAL TIME 2.85120E+07 4.75200E+05  7920.0      330.00     0.90349    
1
1
                            STRESS PERIOD NO.   12, LENGTH =   2592000.    
                            -----------------------------------------------

                              NUMBER OF TIME STEPS =    30

                               MULTIPLIER FOR DELT =     1.100

                            INITIAL TIME STEP SIZE =   15757.40    

 REUSING NON-PARAMETER GHB CELLS FROM LAST STRESS PERIOD

      7 GHB CELLS



 CLASSIFICATION & COUNT OF STREAM SEGMENTS BASED ON SOURCE OF INFLOW:

                HEADWATER     DIVERSION     RECEIVES TRIBUTARY FLOW
                ---------     ---------     -----------------------
                     1              0               0



                    INPUT DATA FOR EACH STREAM SEGMENT
 ---------------------------------------------------------------------------------------------

 SEGMENT    SEG.     INFLOW   OVERLAND   STREAM    STREAM   ICALC  OUTFLOW  DIVERSION PRIORITY
    NO.    LENGTH     RATE     RUNOFF      ET       PPT.    METH.  TO SEG.  FROM SEG.    NO.

      1  2.000E+04 2.208E+00 0.000E+00 0.000E+00 0.000E+00    2        0        0        0


         STREAMBED PROPERTIES AND STREAM DIMENSIONS

 SEGMENT     BED HYD. COND.      BED THICKNESS     ELEV.-TOP OF BED     WIDTH OF STREAM     DEPTH OF STREAM    STREAM ROUGHNESS
    No.     UPPER     LOWER     UPPER     LOWER     UPPER     LOWER     UPPER     LOWER     UPPER     LOWER   CHANNEL      BANK

     1  3.500E-07 3.500E-07                                                                                 3.000E-02 4.000E-02

  EIGHT POINT CROSS-SECTION DATA FOR SEGMENTS WITH ICALC = 2
    X VALUES X VALUES START FROM LEFT SIDE LOOKING DOWNSTREAM

     SEGMENT NO.        X1        X2        X3        X4        X5        X6        X7        X8
            1      0.000E+00 2.000E+00 4.000E+00 6.000E+00 8.000E+00 1.000E+01 1.200E+01 1.400E+01

    Z VALUES ARE RELATIVE TO STREAMBED ELEVATION

     SEGMENT NO.          Z1        Z2        Z3        Z4        Z5        Z6        Z7        Z8
            1      6.000E+00 4.500E+00 3.500E+00 0.000E+00 3.000E-01 3.500E+00 4.500E+00 6.000E+00



 
 SOLVING FOR HEAD 

 NO OUTPUT CONTROL FOR STRESS PERIOD   12   TIME STEP   1
 
 SOLVING FOR HEAD 

 NO OUTPUT CONTROL FOR STRESS PERIOD   12   TIME STEP   2
 
 SOLVING FOR HEAD 

 NO OUTPUT CONTROL FOR STRESS PERIOD   12   TIME STEP   3
 
 SOLVING FOR HEAD 

 NO OUTPUT CONTROL FOR STRESS PERIOD   12   TIME STEP   4
 
 SOLVING FOR HEAD 

 NO OUTPUT CONTROL FOR STRESS PERIOD   12   TIME STEP   5
 
 SOLVING FOR HEAD 

 NO OUTPUT CONTROL FOR STRESS PERIOD   12   TIME STEP   6
 
 SOLVING FOR HEAD 

 NO OUTPUT CONTROL FOR STRESS PERIOD   12   TIME STEP   7
 
 SOLVING FOR HEAD 

 NO OUTPUT CONTROL FOR STRESS PERIOD   12   TIME STEP   8
 
 SOLVING FOR HEAD 

 NO OUTPUT CONTROL FOR STRESS PERIOD   12   TIME STEP   9
 
 SOLVING FOR HEAD 

 NO OUTPUT CONTROL FOR STRESS PERIOD   12   TIME STEP  10
 
 SOLVING FOR HEAD 

 NO OUTPUT CONTROL FOR STRESS PERIOD   12   TIME STEP  11
 
 SOLVING FOR HEAD 

 NO OUTPUT CONTROL FOR STRESS PERIOD   12   TIME STEP  12
 
 SOLVING FOR HEAD 

 NO OUTPUT CONTROL FOR STRESS PERIOD   12   TIME STEP  13
 
 SOLVING FOR HEAD 

 NO OUTPUT CONTROL FOR STRESS PERIOD   12   TIME STEP  14
 
 SOLVING FOR HEAD 

 NO OUTPUT CONTROL FOR STRESS PERIOD   12   TIME STEP  15
 
 SOLVING FOR HEAD 

 NO OUTPUT CONTROL FOR STRESS PERIOD   12   TIME STEP  16
 
 SOLVING FOR HEAD 

 NO OUTPUT CONTROL FOR STRESS PERIOD   12   TIME STEP  17
 
 SOLVING FOR HEAD 

 NO OUTPUT CONTROL FOR STRESS PERIOD   12   TIME STEP  18
 
 SOLVING FOR HEAD 

 NO OUTPUT CONTROL FOR STRESS PERIOD   12   TIME STEP  19
 
 SOLVING FOR HEAD 

 NO OUTPUT CONTROL FOR STRESS PERIOD   12   TIME STEP  20
 
 SOLVING FOR HEAD 

 NO OUTPUT CONTROL FOR STRESS PERIOD   12   TIME STEP  21
 
 SOLVING FOR HEAD 

 NO OUTPUT CONTROL FOR STRESS PERIOD   12   TIME STEP  22
 
 SOLVING FOR HEAD 

 NO OUTPUT CONTROL FOR STRESS PERIOD   12   TIME STEP  23
 
 SOLVING FOR HEAD 

 NO OUTPUT CONTROL FOR STRESS PERIOD   12   TIME STEP  24
 
 SOLVING FOR HEAD 

 NO OUTPUT CONTROL FOR STRESS PERIOD   12   TIME STEP  25
 
 SOLVING FOR HEAD 

 NO OUTPUT CONTROL FOR STRESS PERIOD   12   TIME STEP  26
 
 SOLVING FOR HEAD 

 NO OUTPUT CONTROL FOR STRESS PERIOD   12   TIME STEP  27
 
 SOLVING FOR HEAD 

 NO OUTPUT CONTROL FOR STRESS PERIOD   12   TIME STEP  28
 
 SOLVING FOR HEAD 

 NO OUTPUT CONTROL FOR STRESS PERIOD   12   TIME STEP  29
 
 SOLVING FOR HEAD 

 NO OUTPUT CONTROL FOR STRESS PERIOD   12   TIME STEP  30
1
  VOLUMETRIC BUDGET FOR UNSATURATED ZONE BENEATH STREAMS AT END OF TIME STEP  30 STRESS PERIOD  12
  ------------------------------------------------------------------------------------------------

    CUMULATIVE VOLUMES             L**3    RATES FOR THIS TIME STEP         L**3/T
    ------------------                     ------------------------


          STREAM LOSS =     13034718.0000            STREAM LOSS =        9.3958E-02
    CHANGE IN STORAGE =       433128.4062      CHANGE IN STORAGE =       -7.2602E-03
       RECHARGE TO GW =     12602069.0000         RECHARGE TO GW =            0.1012

             TOTAL IN =     13034718.0000               TOTAL IN =            0.1012

            TOTAL OUT =     13035197.0000              TOTAL OUT =            0.1012

             IN - OUT =         -479.0000               IN - OUT =       -3.2596E-09

  PERCENT DISCREPANCY =            0.00      PERCENT DISCREPANCY =             0.00



1
  VOLUMETRIC BUDGET FOR ENTIRE MODEL AT END OF TIME STEP 30 IN STRESS PERIOD  12
  ------------------------------------------------------------------------------

     CUMULATIVE VOLUMES      L**3       RATES FOR THIS TIME STEP      L**3/T
     ------------------                 ------------------------

           IN:                                      IN:
           ---                                      ---
             STORAGE =     8807953.0000               STORAGE =           0.1994
       CONSTANT HEAD =           0.0000         CONSTANT HEAD =           0.0000
     HEAD DEP BOUNDS =           0.0000       HEAD DEP BOUNDS =           0.0000
      STREAM LEAKAGE =    12602082.0000        STREAM LEAKAGE =           0.1012

            TOTAL IN =    21410036.0000              TOTAL IN =           0.3006

          OUT:                                     OUT:
          ----                                     ----
             STORAGE =     7391617.5000               STORAGE =       2.8274E-02
       CONSTANT HEAD =           0.0000         CONSTANT HEAD =           0.0000
     HEAD DEP BOUNDS =    14018184.0000       HEAD DEP BOUNDS =           0.2723
      STREAM LEAKAGE =           0.0000        STREAM LEAKAGE =           0.0000

           TOTAL OUT =    21409802.0000             TOTAL OUT =           0.3005

            IN - OUT =         234.0000              IN - OUT =       1.0225E-04

 PERCENT DISCREPANCY =           0.00     PERCENT DISCREPANCY =           0.03






          TIME SUMMARY AT END OF TIME STEP  30 IN STRESS PERIOD   12
                    SECONDS     MINUTES      HOURS       DAYS        YEARS
                    -----------------------------------------------------------
   TIME STEP LENGTH 2.49961E+05  4166.0      69.434      2.8931     7.92080E-03
 STRESS PERIOD TIME 2.59200E+06  43200.      720.00      30.000     8.21355E-02
         TOTAL TIME 3.11040E+07 5.18400E+05  8640.0      360.00     0.98563    
1
1
                            STRESS PERIOD NO.   13, LENGTH =   2592000.    
                            -----------------------------------------------

                              NUMBER OF TIME STEPS =    30

                               MULTIPLIER FOR DELT =     1.100

                            INITIAL TIME STEP SIZE =   15757.40    

 REUSING NON-PARAMETER GHB CELLS FROM LAST STRESS PERIOD

      7 GHB CELLS



 CLASSIFICATION & COUNT OF STREAM SEGMENTS BASED ON SOURCE OF INFLOW:

                HEADWATER     DIVERSION     RECEIVES TRIBUTARY FLOW
                ---------     ---------     -----------------------
                     1              0               0



                    INPUT DATA FOR EACH STREAM SEGMENT
 ---------------------------------------------------------------------------------------------

 SEGMENT    SEG.     INFLOW   OVERLAND   STREAM    STREAM   ICALC  OUTFLOW  DIVERSION PRIORITY
    NO.    LENGTH     RATE     RUNOFF      ET       PPT.    METH.  TO SEG.  FROM SEG.    NO.

      1  2.000E+04 1.268E+00 0.000E+00 0.000E+00 0.000E+00    2        0        0        0


         STREAMBED PROPERTIES AND STREAM DIMENSIONS

 SEGMENT     BED HYD. COND.      BED THICKNESS     ELEV.-TOP OF BED     WIDTH OF STREAM     DEPTH OF STREAM    STREAM ROUGHNESS
    No.     UPPER     LOWER     UPPER     LOWER     UPPER     LOWER     UPPER     LOWER     UPPER     LOWER   CHANNEL      BANK

     1  3.500E-07 3.500E-07                                                                                 3.000E-02 4.000E-02

  EIGHT POINT CROSS-SECTION DATA FOR SEGMENTS WITH ICALC = 2
    X VALUES X VALUES START FROM LEFT SIDE LOOKING DOWNSTREAM

     SEGMENT NO.        X1        X2        X3        X4        X5        X6        X7        X8
            1      0.000E+00 2.000E+00 4.000E+00 6.000E+00 8.000E+00 1.000E+01 1.200E+01 1.400E+01

    Z VALUES ARE RELATIVE TO STREAMBED ELEVATION

     SEGMENT NO.          Z1        Z2        Z3        Z4        Z5        Z6        Z7        Z8
            1      6.000E+00 4.500E+00 3.500E+00 0.000E+00 3.000E-01 3.500E+00 4.500E+00 6.000E+00



 
 SOLVING FOR HEAD 

 NO OUTPUT CONTROL FOR STRESS PERIOD   13   TIME STEP   1
 
 SOLVING FOR HEAD 

 NO OUTPUT CONTROL FOR STRESS PERIOD   13   TIME STEP   2
 
 SOLVING FOR HEAD 

 NO OUTPUT CONTROL FOR STRESS PERIOD   13   TIME STEP   3
 
 SOLVING FOR HEAD 

 NO OUTPUT CONTROL FOR STRESS PERIOD   13   TIME STEP   4
 
 SOLVING FOR HEAD 

 NO OUTPUT CONTROL FOR STRESS PERIOD   13   TIME STEP   5
 
 SOLVING FOR HEAD 

 NO OUTPUT CONTROL FOR STRESS PERIOD   13   TIME STEP   6
 
 SOLVING FOR HEAD 

 NO OUTPUT CONTROL FOR STRESS PERIOD   13   TIME STEP   7
 
 SOLVING FOR HEAD 

 NO OUTPUT CONTROL FOR STRESS PERIOD   13   TIME STEP   8
 
 SOLVING FOR HEAD 

 NO OUTPUT CONTROL FOR STRESS PERIOD   13   TIME STEP   9
 
 SOLVING FOR HEAD 

 NO OUTPUT CONTROL FOR STRESS PERIOD   13   TIME STEP  10
 
 SOLVING FOR HEAD 

 NO OUTPUT CONTROL FOR STRESS PERIOD   13   TIME STEP  11
 
 SOLVING FOR HEAD 

 NO OUTPUT CONTROL FOR STRESS PERIOD   13   TIME STEP  12
 
 SOLVING FOR HEAD 

 NO OUTPUT CONTROL FOR STRESS PERIOD   13   TIME STEP  13
 
 SOLVING FOR HEAD 

 NO OUTPUT CONTROL FOR STRESS PERIOD   13   TIME STEP  14
 
 SOLVING FOR HEAD 

 NO OUTPUT CONTROL FOR STRESS PERIOD   13   TIME STEP  15
 
 SOLVING FOR HEAD 

 NO OUTPUT CONTROL FOR STRESS PERIOD   13   TIME STEP  16
 
 SOLVING FOR HEAD 

 NO OUTPUT CONTROL FOR STRESS PERIOD   13   TIME STEP  17
 
 SOLVING FOR HEAD 

 NO OUTPUT CONTROL FOR STRESS PERIOD   13   TIME STEP  18
 
 SOLVING FOR HEAD 

 NO OUTPUT CONTROL FOR STRESS PERIOD   13   TIME STEP  19
 
 SOLVING FOR HEAD 

 NO OUTPUT CONTROL FOR STRESS PERIOD   13   TIME STEP  20
 
 SOLVING FOR HEAD 

 NO OUTPUT CONTROL FOR STRESS PERIOD   13   TIME STEP  21
 
 SOLVING FOR HEAD 

 NO OUTPUT CONTROL FOR STRESS PERIOD   13   TIME STEP  22
 
 SOLVING FOR HEAD 

 NO OUTPUT CONTROL FOR STRESS PERIOD   13   TIME STEP  23
 
 SOLVING FOR HEAD 

 NO OUTPUT CONTROL FOR STRESS PERIOD   13   TIME STEP  24
 
 SOLVING FOR HEAD 

 NO OUTPUT CONTROL FOR STRESS PERIOD   13   TIME STEP  25
 
 SOLVING FOR HEAD 

 NO OUTPUT CONTROL FOR STRESS PERIOD   13   TIME STEP  26
 
 SOLVING FOR HEAD 

 NO OUTPUT CONTROL FOR STRESS PERIOD   13   TIME STEP  27
 
 SOLVING FOR HEAD 

 NO OUTPUT CONTROL FOR STRESS PERIOD   13   TIME STEP  28
 
 SOLVING FOR HEAD 

 NO OUTPUT CONTROL FOR STRESS PERIOD   13   TIME STEP  29
 
 SOLVING FOR HEAD 

 NO OUTPUT CONTROL FOR STRESS PERIOD   13   TIME STEP  30
1
  VOLUMETRIC BUDGET FOR UNSATURATED ZONE BENEATH STREAMS AT END OF TIME STEP  30 STRESS PERIOD  13
  ------------------------------------------------------------------------------------------------

    CUMULATIVE VOLUMES             L**3    RATES FOR THIS TIME STEP         L**3/T
    ------------------                     ------------------------


          STREAM LOSS =     13206699.0000            STREAM LOSS =        6.6352E-02
    CHANGE IN STORAGE =       392903.0625      CHANGE IN STORAGE =       -4.5318E-03
       RECHARGE TO GW =     12814300.0000         RECHARGE TO GW =        7.0883E-02

             TOTAL IN =     13206699.0000               TOTAL IN =        7.0883E-02

            TOTAL OUT =     13207203.0000              TOTAL OUT =        7.0883E-02

             IN - OUT =         -504.0000               IN - OUT =        3.7253E-08

  PERCENT DISCREPANCY =            0.00      PERCENT DISCREPANCY =             0.00



1
  VOLUMETRIC BUDGET FOR ENTIRE MODEL AT END OF TIME STEP 30 IN STRESS PERIOD  13
  ------------------------------------------------------------------------------

     CUMULATIVE VOLUMES      L**3       RATES FOR THIS TIME STEP      L**3/T
     ------------------                 ------------------------

           IN:                                      IN:
           ---                                      ---
             STORAGE =     9337854.0000               STORAGE =           0.2040
       CONSTANT HEAD =           0.0000         CONSTANT HEAD =           0.0000
     HEAD DEP BOUNDS =           0.0000       HEAD DEP BOUNDS =           0.0000
      STREAM LEAKAGE =    12814289.0000        STREAM LEAKAGE =       7.0883E-02

            TOTAL IN =    22152144.0000              TOTAL IN =           0.2749

          OUT:                                     OUT:
          ----                                     ----
             STORAGE =     7445911.5000               STORAGE =       1.5937E-02
       CONSTANT HEAD =           0.0000         CONSTANT HEAD =           0.0000
     HEAD DEP BOUNDS =    14705948.0000       HEAD DEP BOUNDS =           0.2588
      STREAM LEAKAGE =           0.0000        STREAM LEAKAGE =           0.0000

           TOTAL OUT =    22151860.0000             TOTAL OUT =           0.2748

            IN - OUT =         284.0000              IN - OUT =       1.0043E-04

 PERCENT DISCREPANCY =           0.00     PERCENT DISCREPANCY =           0.04






          TIME SUMMARY AT END OF TIME STEP  30 IN STRESS PERIOD   13
                    SECONDS     MINUTES      HOURS       DAYS        YEARS
                    -----------------------------------------------------------
   TIME STEP LENGTH 2.49961E+05  4166.0      69.434      2.8931     7.92080E-03
 STRESS PERIOD TIME 2.59200E+06  43200.      720.00      30.000     8.21355E-02
         TOTAL TIME 3.36960E+07 5.61600E+05  9360.0      390.00      1.0678    
1
1
                            STRESS PERIOD NO.   14, LENGTH =   2592000.    
                            -----------------------------------------------

                              NUMBER OF TIME STEPS =    30

                               MULTIPLIER FOR DELT =     1.100

                            INITIAL TIME STEP SIZE =   15757.40    

 REUSING NON-PARAMETER GHB CELLS FROM LAST STRESS PERIOD

      7 GHB CELLS



 CLASSIFICATION & COUNT OF STREAM SEGMENTS BASED ON SOURCE OF INFLOW:

                HEADWATER     DIVERSION     RECEIVES TRIBUTARY FLOW
                ---------     ---------     -----------------------
                     1              0               0



                    INPUT DATA FOR EACH STREAM SEGMENT
 ---------------------------------------------------------------------------------------------

 SEGMENT    SEG.     INFLOW   OVERLAND   STREAM    STREAM   ICALC  OUTFLOW  DIVERSION PRIORITY
    NO.    LENGTH     RATE     RUNOFF      ET       PPT.    METH.  TO SEG.  FROM SEG.    NO.

      1  2.000E+04 3.350E+00 0.000E+00 0.000E+00 0.000E+00    2        0        0        0


         STREAMBED PROPERTIES AND STREAM DIMENSIONS

 SEGMENT     BED HYD. COND.      BED THICKNESS     ELEV.-TOP OF BED     WIDTH OF STREAM     DEPTH OF STREAM    STREAM ROUGHNESS
    No.     UPPER     LOWER     UPPER     LOWER     UPPER     LOWER     UPPER     LOWER     UPPER     LOWER   CHANNEL      BANK

     1  3.500E-07 3.500E-07                                                                                 3.000E-02 4.000E-02

  EIGHT POINT CROSS-SECTION DATA FOR SEGMENTS WITH ICALC = 2
    X VALUES X VALUES START FROM LEFT SIDE LOOKING DOWNSTREAM

     SEGMENT NO.        X1        X2        X3        X4        X5        X6        X7        X8
            1      0.000E+00 2.000E+00 4.000E+00 6.000E+00 8.000E+00 1.000E+01 1.200E+01 1.400E+01

    Z VALUES ARE RELATIVE TO STREAMBED ELEVATION

     SEGMENT NO.          Z1        Z2        Z3        Z4        Z5        Z6        Z7        Z8
            1      6.000E+00 4.500E+00 3.500E+00 0.000E+00 3.000E-01 3.500E+00 4.500E+00 6.000E+00



 
 SOLVING FOR HEAD 

 NO OUTPUT CONTROL FOR STRESS PERIOD   14   TIME STEP   1
 
 SOLVING FOR HEAD 

 NO OUTPUT CONTROL FOR STRESS PERIOD   14   TIME STEP   2
 
 SOLVING FOR HEAD 

 NO OUTPUT CONTROL FOR STRESS PERIOD   14   TIME STEP   3
 
 SOLVING FOR HEAD 

 NO OUTPUT CONTROL FOR STRESS PERIOD   14   TIME STEP   4
 
 SOLVING FOR HEAD 

 NO OUTPUT CONTROL FOR STRESS PERIOD   14   TIME STEP   5
 
 SOLVING FOR HEAD 

 NO OUTPUT CONTROL FOR STRESS PERIOD   14   TIME STEP   6
 
 SOLVING FOR HEAD 

 NO OUTPUT CONTROL FOR STRESS PERIOD   14   TIME STEP   7
 
 SOLVING FOR HEAD 

 NO OUTPUT CONTROL FOR STRESS PERIOD   14   TIME STEP   8
 
 SOLVING FOR HEAD 

 NO OUTPUT CONTROL FOR STRESS PERIOD   14   TIME STEP   9
 
 SOLVING FOR HEAD 

 NO OUTPUT CONTROL FOR STRESS PERIOD   14   TIME STEP  10
 
 SOLVING FOR HEAD 

 NO OUTPUT CONTROL FOR STRESS PERIOD   14   TIME STEP  11
 
 SOLVING FOR HEAD 

 NO OUTPUT CONTROL FOR STRESS PERIOD   14   TIME STEP  12
 
 SOLVING FOR HEAD 

 NO OUTPUT CONTROL FOR STRESS PERIOD   14   TIME STEP  13
 
 SOLVING FOR HEAD 

 NO OUTPUT CONTROL FOR STRESS PERIOD   14   TIME STEP  14
 
 SOLVING FOR HEAD 

 NO OUTPUT CONTROL FOR STRESS PERIOD   14   TIME STEP  15
 
 SOLVING FOR HEAD 

 NO OUTPUT CONTROL FOR STRESS PERIOD   14   TIME STEP  16
 
 SOLVING FOR HEAD 

 NO OUTPUT CONTROL FOR STRESS PERIOD   14   TIME STEP  17
 
 SOLVING FOR HEAD 

 NO OUTPUT CONTROL FOR STRESS PERIOD   14   TIME STEP  18
 
 SOLVING FOR HEAD 

 NO OUTPUT CONTROL FOR STRESS PERIOD   14   TIME STEP  19
 
 SOLVING FOR HEAD 

 NO OUTPUT CONTROL FOR STRESS PERIOD   14   TIME STEP  20
 
 SOLVING FOR HEAD 

 NO OUTPUT CONTROL FOR STRESS PERIOD   14   TIME STEP  21
 
 SOLVING FOR HEAD 

 NO OUTPUT CONTROL FOR STRESS PERIOD   14   TIME STEP  22
 
 SOLVING FOR HEAD 

 NO OUTPUT CONTROL FOR STRESS PERIOD   14   TIME STEP  23
 
 SOLVING FOR HEAD 

 NO OUTPUT CONTROL FOR STRESS PERIOD   14   TIME STEP  24
 
 SOLVING FOR HEAD 

 NO OUTPUT CONTROL FOR STRESS PERIOD   14   TIME STEP  25
 
 SOLVING FOR HEAD 

 NO OUTPUT CONTROL FOR STRESS PERIOD   14   TIME STEP  26
 
 SOLVING FOR HEAD 

 NO OUTPUT CONTROL FOR STRESS PERIOD   14   TIME STEP  27
 
 SOLVING FOR HEAD 

 NO OUTPUT CONTROL FOR STRESS PERIOD   14   TIME STEP  28
 
 SOLVING FOR HEAD 

 NO OUTPUT CONTROL FOR STRESS PERIOD   14   TIME STEP  29
 
 SOLVING FOR HEAD 

 NO OUTPUT CONTROL FOR STRESS PERIOD   14   TIME STEP  30
1
  VOLUMETRIC BUDGET FOR UNSATURATED ZONE BENEATH STREAMS AT END OF TIME STEP  30 STRESS PERIOD  14
  ------------------------------------------------------------------------------------------------

    CUMULATIVE VOLUMES             L**3    RATES FOR THIS TIME STEP         L**3/T
    ------------------                     ------------------------


          STREAM LOSS =     13532402.0000            STREAM LOSS =            0.1256
    CHANGE IN STORAGE =       432594.8125      CHANGE IN STORAGE =       -3.3679E-03
       RECHARGE TO GW =     13100236.0000         RECHARGE TO GW =            0.1290

             TOTAL IN =     13532402.0000               TOTAL IN =            0.1290

            TOTAL OUT =     13532831.0000              TOTAL OUT =            0.1290

             IN - OUT =         -429.0000               IN - OUT =       -9.3132E-10

  PERCENT DISCREPANCY =            0.00      PERCENT DISCREPANCY =             0.00



1
  VOLUMETRIC BUDGET FOR ENTIRE MODEL AT END OF TIME STEP 30 IN STRESS PERIOD  14
  ------------------------------------------------------------------------------

     CUMULATIVE VOLUMES      L**3       RATES FOR THIS TIME STEP      L**3/T
     ------------------                 ------------------------

           IN:                                      IN:
           ---                                      ---
             STORAGE =     9782699.0000               STORAGE =           0.1560
       CONSTANT HEAD =           0.0000         CONSTANT HEAD =           0.0000
     HEAD DEP BOUNDS =           0.0000       HEAD DEP BOUNDS =           0.0000
      STREAM LEAKAGE =    13100246.0000        STREAM LEAKAGE =           0.1290

            TOTAL IN =    22882944.0000              TOTAL IN =           0.2850

          OUT:                                     OUT:
          ----                                     ----
             STORAGE =     7518147.0000               STORAGE =       3.4315E-02
       CONSTANT HEAD =           0.0000         CONSTANT HEAD =           0.0000
     HEAD DEP BOUNDS =    15364512.0000       HEAD DEP BOUNDS =           0.2507
      STREAM LEAKAGE =           0.0000        STREAM LEAKAGE =           0.0000

           TOTAL OUT =    22882660.0000             TOTAL OUT =           0.2850

            IN - OUT =         284.0000              IN - OUT =       5.4449E-05

 PERCENT DISCREPANCY =           0.00     PERCENT DISCREPANCY =           0.02






          TIME SUMMARY AT END OF TIME STEP  30 IN STRESS PERIOD   14
                    SECONDS     MINUTES      HOURS       DAYS        YEARS
                    -----------------------------------------------------------
   TIME STEP LENGTH 2.49961E+05  4166.0      69.434      2.8931     7.92080E-03
 STRESS PERIOD TIME 2.59200E+06  43200.      720.00      30.000     8.21355E-02
         TOTAL TIME 3.62880E+07 6.04800E+05  10080.      420.00      1.1499    
1
1
                            STRESS PERIOD NO.   15, LENGTH =   2592000.    
                            -----------------------------------------------

                              NUMBER OF TIME STEPS =    30

                               MULTIPLIER FOR DELT =     1.100

                            INITIAL TIME STEP SIZE =   15757.40    

 REUSING NON-PARAMETER GHB CELLS FROM LAST STRESS PERIOD

      7 GHB CELLS



 CLASSIFICATION & COUNT OF STREAM SEGMENTS BASED ON SOURCE OF INFLOW:

                HEADWATER     DIVERSION     RECEIVES TRIBUTARY FLOW
                ---------     ---------     -----------------------
                     1              0               0



                    INPUT DATA FOR EACH STREAM SEGMENT
 ---------------------------------------------------------------------------------------------

 SEGMENT    SEG.     INFLOW   OVERLAND   STREAM    STREAM   ICALC  OUTFLOW  DIVERSION PRIORITY
    NO.    LENGTH     RATE     RUNOFF      ET       PPT.    METH.  TO SEG.  FROM SEG.    NO.

      1  2.000E+04 6.180E+00 0.000E+00 0.000E+00 0.000E+00    2        0        0        0


         STREAMBED PROPERTIES AND STREAM DIMENSIONS

 SEGMENT     BED HYD. COND.      BED THICKNESS     ELEV.-TOP OF BED     WIDTH OF STREAM     DEPTH OF STREAM    STREAM ROUGHNESS
    No.     UPPER     LOWER     UPPER     LOWER     UPPER     LOWER     UPPER     LOWER     UPPER     LOWER   CHANNEL      BANK

     1  3.500E-07 3.500E-07                                                                                 3.000E-02 4.000E-02

  EIGHT POINT CROSS-SECTION DATA FOR SEGMENTS WITH ICALC = 2
    X VALUES X VALUES START FROM LEFT SIDE LOOKING DOWNSTREAM

     SEGMENT NO.        X1        X2        X3        X4        X5        X6        X7        X8
            1      0.000E+00 2.000E+00 4.000E+00 6.000E+00 8.000E+00 1.000E+01 1.200E+01 1.400E+01

    Z VALUES ARE RELATIVE TO STREAMBED ELEVATION

     SEGMENT NO.          Z1        Z2        Z3        Z4        Z5        Z6        Z7        Z8
            1      6.000E+00 4.500E+00 3.500E+00 0.000E+00 3.000E-01 3.500E+00 4.500E+00 6.000E+00



 
 SOLVING FOR HEAD 

 NO OUTPUT CONTROL FOR STRESS PERIOD   15   TIME STEP   1
 
 SOLVING FOR HEAD 

 NO OUTPUT CONTROL FOR STRESS PERIOD   15   TIME STEP   2
 
 SOLVING FOR HEAD 

 NO OUTPUT CONTROL FOR STRESS PERIOD   15   TIME STEP   3
 
 SOLVING FOR HEAD 

 NO OUTPUT CONTROL FOR STRESS PERIOD   15   TIME STEP   4
 
 SOLVING FOR HEAD 

 NO OUTPUT CONTROL FOR STRESS PERIOD   15   TIME STEP   5
 
 SOLVING FOR HEAD 

 NO OUTPUT CONTROL FOR STRESS PERIOD   15   TIME STEP   6
 
 SOLVING FOR HEAD 

 NO OUTPUT CONTROL FOR STRESS PERIOD   15   TIME STEP   7
 
 SOLVING FOR HEAD 

 NO OUTPUT CONTROL FOR STRESS PERIOD   15   TIME STEP   8
 
 SOLVING FOR HEAD 

 NO OUTPUT CONTROL FOR STRESS PERIOD   15   TIME STEP   9
 
 SOLVING FOR HEAD 

 NO OUTPUT CONTROL FOR STRESS PERIOD   15   TIME STEP  10
 
 SOLVING FOR HEAD 

 NO OUTPUT CONTROL FOR STRESS PERIOD   15   TIME STEP  11
 
 SOLVING FOR HEAD 

 NO OUTPUT CONTROL FOR STRESS PERIOD   15   TIME STEP  12
 
 SOLVING FOR HEAD 

 NO OUTPUT CONTROL FOR STRESS PERIOD   15   TIME STEP  13
 
 SOLVING FOR HEAD 

 NO OUTPUT CONTROL FOR STRESS PERIOD   15   TIME STEP  14
 
 SOLVING FOR HEAD 

 NO OUTPUT CONTROL FOR STRESS PERIOD   15   TIME STEP  15
 
 SOLVING FOR HEAD 

 NO OUTPUT CONTROL FOR STRESS PERIOD   15   TIME STEP  16
 
 SOLVING FOR HEAD 

 NO OUTPUT CONTROL FOR STRESS PERIOD   15   TIME STEP  17
 
 SOLVING FOR HEAD 

 NO OUTPUT CONTROL FOR STRESS PERIOD   15   TIME STEP  18
 
 SOLVING FOR HEAD 

 NO OUTPUT CONTROL FOR STRESS PERIOD   15   TIME STEP  19
 
 SOLVING FOR HEAD 

 NO OUTPUT CONTROL FOR STRESS PERIOD   15   TIME STEP  20
 
 SOLVING FOR HEAD 

 NO OUTPUT CONTROL FOR STRESS PERIOD   15   TIME STEP  21
 
 SOLVING FOR HEAD 

 NO OUTPUT CONTROL FOR STRESS PERIOD   15   TIME STEP  22
 
 SOLVING FOR HEAD 

 NO OUTPUT CONTROL FOR STRESS PERIOD   15   TIME STEP  23
 
 SOLVING FOR HEAD 

 NO OUTPUT CONTROL FOR STRESS PERIOD   15   TIME STEP  24
 
 SOLVING FOR HEAD 

 NO OUTPUT CONTROL FOR STRESS PERIOD   15   TIME STEP  25
 
 SOLVING FOR HEAD 

 NO OUTPUT CONTROL FOR STRESS PERIOD   15   TIME STEP  26
 
 SOLVING FOR HEAD 

 NO OUTPUT CONTROL FOR STRESS PERIOD   15   TIME STEP  27
 
 SOLVING FOR HEAD 

 NO OUTPUT CONTROL FOR STRESS PERIOD   15   TIME STEP  28
 
 SOLVING FOR HEAD 

 NO OUTPUT CONTROL FOR STRESS PERIOD   15   TIME STEP  29
 
 SOLVING FOR HEAD 

 OUTPUT CONTROL FOR STRESS PERIOD   15   TIME STEP  30
    PRINT HEAD FOR ALL LAYERS
    PRINT BUDGET
    SAVE BUDGET

  HEAD DEP BOUNDS   PERIOD   15   STEP  30
 BOUNDARY      1   LAYER   1   ROW     1   COL   100   RATE   -3.664994E-02
 BOUNDARY      2   LAYER   1   ROW     2   COL   100   RATE   -3.668608E-02
 BOUNDARY      3   LAYER   1   ROW     3   COL   100   RATE   -3.645148E-02
 BOUNDARY      4   LAYER   1   ROW     4   COL   100   RATE   -2.739963E-02
 BOUNDARY      5   LAYER   1   ROW     5   COL   100   RATE   -3.645148E-02
 BOUNDARY      6   LAYER   1   ROW     6   COL   100   RATE   -3.668608E-02
 BOUNDARY      7   LAYER   1   ROW     7   COL   100   RATE   -3.664993E-02



 STREAM LISTING     PERIOD     15   STEP       30

 LAYER ROW COL. STREAM  RCH.   FLOW INTO    STREAM     FLOW OUT OF   OVRLND.    DIRECT     STREAM      STREAM      STREAM     STREAM  STREAMBED   FLOW TO   CHNG. UNSAT. 
                SEG.NO.  NO.   STRM. RCH.    LOSS       STRM. RCH.   RUNOFF     PRECIP       ET         HEAD        DEPTH      WIDTH  CONDCTNC.   WAT. TAB.   STORAGE

   1    4    1     1     1    6.1800E+00  2.0196E-03   6.1780E+00  0.000E+00  0.000E+00  0.000E+00  1.41732E+02  1.882E+00  4.064E+00  8.478E-04  2.080E-03 -5.587E-05
   1    4    2     1     2    6.1780E+00  2.0191E-03   6.1760E+00  0.000E+00  0.000E+00  0.000E+00  1.41432E+02  1.882E+00  4.064E+00  8.477E-04  2.075E-03 -5.068E-05
   1    4    3     1     3    6.1760E+00  2.0186E-03   6.1739E+00  0.000E+00  0.000E+00  0.000E+00  1.41131E+02  1.881E+00  4.064E+00  8.476E-04  2.063E-03 -3.992E-05
   1    4    4     1     4    6.1739E+00  2.0180E-03   6.1719E+00  0.000E+00  0.000E+00  0.000E+00  1.40831E+02  1.881E+00  4.063E+00  8.475E-04  2.058E-03 -3.491E-05
   1    4    5     1     5    6.1719E+00  2.0175E-03   6.1699E+00  0.000E+00  0.000E+00  0.000E+00  1.40531E+02  1.881E+00  4.063E+00  8.474E-04  2.058E-03 -3.510E-05
   1    4    6     1     6    6.1699E+00  2.0170E-03   6.1679E+00  0.000E+00  0.000E+00  0.000E+00  1.40231E+02  1.881E+00  4.062E+00  8.473E-04  2.057E-03 -3.525E-05
   1    4    7     1     7    6.1679E+00  2.0165E-03   6.1659E+00  0.000E+00  0.000E+00  0.000E+00  1.39930E+02  1.880E+00  4.062E+00  8.472E-04  2.057E-03 -3.539E-05
   1    4    8     1     8    6.1659E+00  2.0160E-03   6.1639E+00  0.000E+00  0.000E+00  0.000E+00  1.39630E+02  1.880E+00  4.062E+00  8.471E-04  2.056E-03 -3.550E-05
   1    4    9     1     9    6.1639E+00  2.0155E-03   6.1618E+00  0.000E+00  0.000E+00  0.000E+00  1.39330E+02  1.880E+00  4.061E+00  8.470E-04  2.056E-03 -5.649E-05
   1    4   10     1    10    6.1618E+00  2.0150E-03   6.1598E+00  0.000E+00  0.000E+00  0.000E+00  1.39029E+02  1.879E+00  4.061E+00  8.469E-04  2.056E-03 -5.632E-05
   1    4   11     1    11    6.1598E+00  2.0144E-03   6.1578E+00  0.000E+00  0.000E+00  0.000E+00  1.38729E+02  1.879E+00  4.061E+00  8.468E-04  2.055E-03 -5.612E-05
   1    4   12     1    12    6.1578E+00  2.0139E-03   6.1558E+00  0.000E+00  0.000E+00  0.000E+00  1.38429E+02  1.879E+00  4.060E+00  8.467E-04  2.055E-03 -5.591E-05
   1    4   13     1    13    6.1558E+00  2.0134E-03   6.1538E+00  0.000E+00  0.000E+00  0.000E+00  1.38128E+02  1.878E+00  4.060E+00  8.466E-04  2.054E-03 -5.569E-05
   1    4   14     1    14    6.1538E+00  2.0129E-03   6.1518E+00  0.000E+00  0.000E+00  0.000E+00  1.37828E+02  1.878E+00  4.059E+00  8.465E-04  2.054E-03 -5.545E-05
   1    4   15     1    15    6.1518E+00  2.0124E-03   6.1498E+00  0.000E+00  0.000E+00  0.000E+00  1.37528E+02  1.878E+00  4.059E+00  8.464E-04  2.053E-03 -5.520E-05
   1    4   16     1    16    6.1498E+00  2.0119E-03   6.1477E+00  0.000E+00  0.000E+00  0.000E+00  1.37227E+02  1.877E+00  4.059E+00  8.463E-04  2.053E-03 -5.492E-05
   1    4   17     1    17    6.1477E+00  2.0114E-03   6.1457E+00  0.000E+00  0.000E+00  0.000E+00  1.36927E+02  1.877E+00  4.058E+00  8.462E-04  2.052E-03 -5.463E-05
   1    4   18     1    18    6.1457E+00  2.0108E-03   6.1437E+00  0.000E+00  0.000E+00  0.000E+00  1.36627E+02  1.877E+00  4.058E+00  8.461E-04  2.052E-03 -5.432E-05
   1    4   19     1    19    6.1437E+00  2.0103E-03   6.1417E+00  0.000E+00  0.000E+00  0.000E+00  1.36326E+02  1.876E+00  4.057E+00  8.460E-04  2.051E-03 -5.398E-05
   1    4   20     1    20    6.1417E+00  2.0098E-03   6.1397E+00  0.000E+00  0.000E+00  0.000E+00  1.36026E+02  1.876E+00  4.057E+00  8.458E-04  2.050E-03 -5.363E-05
   1    4   21     1    21    6.1397E+00  2.0093E-03   6.1377E+00  0.000E+00  0.000E+00  0.000E+00  1.35726E+02  1.876E+00  4.057E+00  8.457E-04  2.050E-03 -5.325E-05
   1    4   22     1    22    6.1377E+00  2.0088E-03   6.1357E+00  0.000E+00  0.000E+00  0.000E+00  1.35425E+02  1.875E+00  4.056E+00  8.456E-04  2.049E-03 -5.285E-05
   1    4   23     1    23    6.1357E+00  2.0083E-03   6.1337E+00  0.000E+00  0.000E+00  0.000E+00  1.35125E+02  1.875E+00  4.056E+00  8.455E-04  2.048E-03 -5.242E-05
   1    4   24     1    24    6.1337E+00  2.0078E-03   6.1317E+00  0.000E+00  0.000E+00  0.000E+00  1.34825E+02  1.875E+00  4.056E+00  8.454E-04  2.048E-03 -5.196E-05
   1    4   25     1    25    6.1317E+00  2.0073E-03   6.1297E+00  0.000E+00  0.000E+00  0.000E+00  1.34525E+02  1.875E+00  4.055E+00  8.453E-04  2.047E-03 -5.146E-05
   1    4   26     1    26    6.1297E+00  2.0067E-03   6.1277E+00  0.000E+00  0.000E+00  0.000E+00  1.34224E+02  1.874E+00  4.055E+00  8.452E-04  2.043E-03 -4.730E-05
   1    4   27     1    27    6.1277E+00  2.0062E-03   6.1257E+00  0.000E+00  0.000E+00  0.000E+00  1.33924E+02  1.874E+00  4.054E+00  8.451E-04  2.031E-03 -3.638E-05
   1    4   28     1    28    6.1257E+00  2.0057E-03   6.1236E+00  0.000E+00  0.000E+00  0.000E+00  1.33624E+02  1.874E+00  4.054E+00  8.450E-04  2.027E-03 -3.212E-05
   1    4   29     1    29    6.1236E+00  2.0052E-03   6.1216E+00  0.000E+00  0.000E+00  0.000E+00  1.33323E+02  1.873E+00  4.054E+00  8.449E-04  2.026E-03 -3.160E-05
   1    4   30     1    30    6.1216E+00  2.0047E-03   6.1196E+00  0.000E+00  0.000E+00  0.000E+00  1.33023E+02  1.873E+00  4.053E+00  8.448E-04  2.025E-03 -3.102E-05
   1    4   31     1    31    6.1196E+00  2.0042E-03   6.1176E+00  0.000E+00  0.000E+00  0.000E+00  1.32723E+02  1.873E+00  4.053E+00  8.447E-04  2.025E-03 -3.042E-05
   1    4   32     1    32    6.1176E+00  2.0037E-03   6.1156E+00  0.000E+00  0.000E+00  0.000E+00  1.32422E+02  1.872E+00  4.053E+00  8.446E-04  2.024E-03 -2.979E-05
   1    4   33     1    33    6.1156E+00  2.0032E-03   6.1136E+00  0.000E+00  0.000E+00  0.000E+00  1.32122E+02  1.872E+00  4.052E+00  8.445E-04  2.023E-03 -2.913E-05
   1    4   34     1    34    6.1136E+00  2.0026E-03   6.1116E+00  0.000E+00  0.000E+00  0.000E+00  1.31822E+02  1.872E+00  4.052E+00  8.444E-04  2.022E-03 -2.844E-05
   1    4   35     1    35    6.1116E+00  2.0021E-03   6.1096E+00  0.000E+00  0.000E+00  0.000E+00  1.31521E+02  1.871E+00  4.051E+00  8.443E-04  2.021E-03 -2.772E-05
   1    4   36     1    36    6.1096E+00  2.0016E-03   6.1076E+00  0.000E+00  0.000E+00  0.000E+00  1.31221E+02  1.871E+00  4.051E+00  8.442E-04  2.020E-03 -2.696E-05
   1    4   37     1    37    6.1076E+00  2.0011E-03   6.1056E+00  0.000E+00  0.000E+00  0.000E+00  1.30921E+02  1.871E+00  4.051E+00  8.441E-04  2.019E-03 -2.618E-05
   1    4   38     1    38    6.1056E+00  2.0006E-03   6.1036E+00  0.000E+00  0.000E+00  0.000E+00  1.30620E+02  1.870E+00  4.050E+00  8.440E-04  2.018E-03 -2.537E-05
   1    4   39     1    39    6.1036E+00  2.0001E-03   6.1016E+00  0.000E+00  0.000E+00  0.000E+00  1.30320E+02  1.870E+00  4.050E+00  8.439E-04  2.017E-03 -2.452E-05
   1    4   40     1    40    6.1016E+00  1.9996E-03   6.0996E+00  0.000E+00  0.000E+00  0.000E+00  1.30020E+02  1.870E+00  4.050E+00  8.438E-04  2.016E-03 -2.365E-05
   1    4   41     1    41    6.0996E+00  1.9991E-03   6.0976E+00  0.000E+00  0.000E+00  0.000E+00  1.29719E+02  1.869E+00  4.049E+00  8.437E-04  2.014E-03 -2.275E-05
   1    4   42     1    42    6.0976E+00  1.9986E-03   6.0956E+00  0.000E+00  0.000E+00  0.000E+00  1.29419E+02  1.869E+00  4.049E+00  8.436E-04  2.013E-03 -2.181E-05
   1    4   43     1    43    6.0956E+00  1.9981E-03   6.0936E+00  0.000E+00  0.000E+00  0.000E+00  1.29119E+02  1.869E+00  4.048E+00  8.435E-04  2.012E-03 -2.085E-05
   1    4   44     1    44    6.0936E+00  1.9975E-03   6.0916E+00  0.000E+00  0.000E+00  0.000E+00  1.28819E+02  1.869E+00  4.048E+00  8.434E-04  2.011E-03 -1.986E-05
   1    4   45     1    45    6.0916E+00  1.9970E-03   6.0896E+00  0.000E+00  0.000E+00  0.000E+00  1.28518E+02  1.868E+00  4.048E+00  8.433E-04  2.009E-03 -1.884E-05
   1    4   46     1    46    6.0896E+00  1.9965E-03   6.0876E+00  0.000E+00  0.000E+00  0.000E+00  1.28218E+02  1.868E+00  4.047E+00  8.432E-04  2.008E-03 -1.779E-05
   1    4   47     1    47    6.0876E+00  1.9960E-03   6.0856E+00  0.000E+00  0.000E+00  0.000E+00  1.27918E+02  1.868E+00  4.047E+00  8.431E-04  2.007E-03 -1.672E-05
   1    4   48     1    48    6.0856E+00  1.9955E-03   6.0836E+00  0.000E+00  0.000E+00  0.000E+00  1.27617E+02  1.867E+00  4.047E+00  8.430E-04  2.006E-03 -1.563E-05
   1    4   49     1    49    6.0836E+00  1.9950E-03   6.0816E+00  0.000E+00  0.000E+00  0.000E+00  1.27317E+02  1.867E+00  4.046E+00  8.429E-04  2.004E-03 -1.451E-05
   1    4   50     1    50    6.0816E+00  1.9945E-03   6.0796E+00  0.000E+00  0.000E+00  0.000E+00  1.27017E+02  1.867E+00  4.046E+00  8.428E-04  2.003E-03 -1.337E-05
   1    4   51     1    51    6.0796E+00  1.9940E-03   6.0777E+00  0.000E+00  0.000E+00  0.000E+00  1.26716E+02  1.866E+00  4.045E+00  8.427E-04  2.001E-03 -1.222E-05
   1    4   52     1    52    6.0777E+00  1.9935E-03   6.0757E+00  0.000E+00  0.000E+00  0.000E+00  1.26416E+02  1.866E+00  4.045E+00  8.426E-04  2.000E-03 -1.104E-05
   1    4   53     1    53    6.0757E+00  1.9930E-03   6.0737E+00  0.000E+00  0.000E+00  0.000E+00  1.26116E+02  1.866E+00  4.045E+00  8.424E-04  1.999E-03 -9.856E-06
   1    4   54     1    54    6.0737E+00  1.9924E-03   6.0717E+00  0.000E+00  0.000E+00  0.000E+00  1.25815E+02  1.865E+00  4.044E+00  8.423E-04  1.997E-03 -8.658E-06
   1    4   55     1    55    6.0717E+00  1.9919E-03   6.0697E+00  0.000E+00  0.000E+00  0.000E+00  1.25515E+02  1.865E+00  4.044E+00  8.422E-04  1.996E-03 -7.449E-06
   1    4   56     1    56    6.0697E+00  1.9914E-03   6.0677E+00  0.000E+00  0.000E+00  0.000E+00  1.25215E+02  1.865E+00  4.044E+00  8.421E-04  1.994E-03 -6.235E-06
   1    4   57     1    57    6.0677E+00  1.9909E-03   6.0657E+00  0.000E+00  0.000E+00  0.000E+00  1.24914E+02  1.864E+00  4.043E+00  8.420E-04  1.993E-03 -5.017E-06
   1    4   58     1    58    6.0657E+00  1.9904E-03   6.0637E+00  0.000E+00  0.000E+00  0.000E+00  1.24614E+02  1.864E+00  4.043E+00  8.419E-04  1.991E-03 -3.800E-06
   1    4   59     1    59    6.0637E+00  1.9899E-03   6.0617E+00  0.000E+00  0.000E+00  0.000E+00  1.24314E+02  1.864E+00  4.042E+00  8.418E-04  1.990E-03 -2.587E-06
   1    4   60     1    60    6.0617E+00  1.9894E-03   6.0597E+00  0.000E+00  0.000E+00  0.000E+00  1.24013E+02  1.863E+00  4.042E+00  8.417E-04  1.988E-03 -1.382E-06
   1    4   61     1    61    6.0597E+00  1.9889E-03   6.0577E+00  0.000E+00  0.000E+00  0.000E+00  1.23713E+02  1.863E+00  4.042E+00  8.416E-04  1.987E-03 -1.894E-07
   1    4   62     1    62    6.0577E+00  1.9884E-03   6.0558E+00  0.000E+00  0.000E+00  0.000E+00  1.23413E+02  1.863E+00  4.041E+00  8.415E-04  1.986E-03  9.864E-07
   1    4   63     1    63    6.0558E+00  1.9879E-03   6.0538E+00  0.000E+00  0.000E+00  0.000E+00  1.23113E+02  1.863E+00  4.041E+00  8.414E-04  1.984E-03  2.141E-06
   1    4   64     1    64    6.0538E+00  1.9874E-03   6.0518E+00  0.000E+00  0.000E+00  0.000E+00  1.22812E+02  1.862E+00  4.040E+00  8.413E-04  1.983E-03  3.272E-06
   1    4   65     1    65    6.0518E+00  1.9869E-03   6.0498E+00  0.000E+00  0.000E+00  0.000E+00  1.22512E+02  1.862E+00  4.040E+00  8.412E-04  1.981E-03  4.370E-06
   1    4   66     1    66    6.0498E+00  1.9863E-03   6.0478E+00  0.000E+00  0.000E+00  0.000E+00  1.22212E+02  1.862E+00  4.040E+00  8.411E-04  1.980E-03  5.433E-06
   1    4   67     1    67    6.0478E+00  1.9858E-03   6.0458E+00  0.000E+00  0.000E+00  0.000E+00  1.21911E+02  1.861E+00  4.039E+00  8.410E-04  1.979E-03  6.454E-06
   1    4   68     1    68    6.0458E+00  1.9853E-03   6.0438E+00  0.000E+00  0.000E+00  0.000E+00  1.21611E+02  1.861E+00  4.039E+00  8.409E-04  1.978E-03  7.428E-06
   1    4   69     1    69    6.0438E+00  1.9848E-03   6.0419E+00  0.000E+00  0.000E+00  0.000E+00  1.21311E+02  1.861E+00  4.039E+00  8.408E-04  1.976E-03  8.348E-06
   1    4   70     1    70    6.0419E+00  1.9843E-03   6.0399E+00  0.000E+00  0.000E+00  0.000E+00  1.21010E+02  1.860E+00  4.038E+00  8.407E-04  1.975E-03  9.206E-06
   1    4   71     1    71    6.0399E+00  1.9838E-03   6.0379E+00  0.000E+00  0.000E+00  0.000E+00  1.20710E+02  1.860E+00  4.038E+00  8.406E-04  1.974E-03  9.997E-06
   1    4   72     1    72    6.0379E+00  1.9833E-03   6.0359E+00  0.000E+00  0.000E+00  0.000E+00  1.20410E+02  1.860E+00  4.037E+00  8.405E-04  1.973E-03  1.072E-05
   1    4   73     1    73    6.0359E+00  1.9828E-03   6.0339E+00  0.000E+00  0.000E+00  0.000E+00  1.20109E+02  1.859E+00  4.037E+00  8.404E-04  1.971E-03  1.135E-05
   1    4   74     1    74    6.0339E+00  1.9823E-03   6.0319E+00  0.000E+00  0.000E+00  0.000E+00  1.19809E+02  1.859E+00  4.037E+00  8.403E-04  1.970E-03  1.190E-05
   1    4   75     1    75    6.0319E+00  1.9818E-03   6.0300E+00  0.000E+00  0.000E+00  0.000E+00  1.19509E+02  1.859E+00  4.036E+00  8.402E-04  1.969E-03  1.236E-05
   1    4   76     1    76    6.0300E+00  1.9813E-03   6.0280E+00  0.000E+00  0.000E+00  0.000E+00  1.19208E+02  1.858E+00  4.036E+00  8.401E-04  1.969E-03  1.271E-05
   1    4   77     1    77    6.0280E+00  1.9808E-03   6.0260E+00  0.000E+00  0.000E+00  0.000E+00  1.18908E+02  1.858E+00  4.036E+00  8.400E-04  1.968E-03  1.296E-05
   1    4   78     1    78    6.0260E+00  1.9803E-03   6.0240E+00  0.000E+00  0.000E+00  0.000E+00  1.18608E+02  1.858E+00  4.035E+00  8.399E-04  1.967E-03  1.309E-05
   1    4   79     1    79    6.0240E+00  1.9798E-03   6.0220E+00  0.000E+00  0.000E+00  0.000E+00  1.18307E+02  1.857E+00  4.035E+00  8.398E-04  1.967E-03  1.309E-05
   1    4   80     1    80    6.0220E+00  1.9792E-03   6.0201E+00  0.000E+00  0.000E+00  0.000E+00  1.18007E+02  1.857E+00  4.034E+00  8.397E-04  1.966E-03  1.297E-05
   1    4   81     1    81    6.0201E+00  1.9787E-03   6.0181E+00  0.000E+00  0.000E+00  0.000E+00  1.17707E+02  1.857E+00  4.034E+00  8.396E-04  1.966E-03  1.270E-05
   1    4   82     1    82    6.0181E+00  1.9782E-03   6.0161E+00  0.000E+00  0.000E+00  0.000E+00  1.17407E+02  1.857E+00  4.034E+00  8.395E-04  1.966E-03  1.230E-05
   1    4   83     1    83    6.0161E+00  1.9777E-03   6.0141E+00  0.000E+00  0.000E+00  0.000E+00  1.17106E+02  1.856E+00  4.033E+00  8.394E-04  1.966E-03  1.176E-05
   1    4   84     1    84    6.0141E+00  1.9772E-03   6.0121E+00  0.000E+00  0.000E+00  0.000E+00  1.16806E+02  1.856E+00  4.033E+00  8.393E-04  1.980E-03 -2.385E-06
   1    4   85     1    85    6.0121E+00  1.9767E-03   6.0102E+00  0.000E+00  0.000E+00  0.000E+00  1.16506E+02  1.856E+00  4.033E+00  8.392E-04  1.994E-03 -1.765E-05
   1    4   86     1    86    6.0102E+00  1.9762E-03   6.0082E+00  0.000E+00  0.000E+00  0.000E+00  1.16205E+02  1.855E+00  4.032E+00  8.391E-04  1.995E-03 -1.871E-05
   1    4   87     1    87    6.0082E+00  1.9757E-03   6.0062E+00  0.000E+00  0.000E+00  0.000E+00  1.15905E+02  1.855E+00  4.032E+00  8.390E-04  1.996E-03 -1.994E-05
   1    4   88     1    88    6.0062E+00  1.9752E-03   6.0042E+00  0.000E+00  0.000E+00  0.000E+00  1.15605E+02  1.855E+00  4.031E+00  8.389E-04  1.997E-03 -2.132E-05
   1    4   89     1    89    6.0042E+00  1.9747E-03   6.0023E+00  0.000E+00  0.000E+00  0.000E+00  1.15304E+02  1.854E+00  4.031E+00  8.387E-04  1.998E-03 -2.286E-05
   1    4   90     1    90    6.0023E+00  1.9742E-03   6.0003E+00  0.000E+00  0.000E+00  0.000E+00  1.15004E+02  1.854E+00  4.031E+00  8.386E-04  1.999E-03 -2.453E-05
   1    4   91     1    91    6.0003E+00  1.9737E-03   5.9983E+00  0.000E+00  0.000E+00  0.000E+00  1.14704E+02  1.854E+00  4.030E+00  8.385E-04  2.000E-03 -2.633E-05
   1    4   92     1    92    5.9983E+00  1.9732E-03   5.9963E+00  0.000E+00  0.000E+00  0.000E+00  1.14403E+02  1.853E+00  4.030E+00  8.384E-04  2.001E-03 -2.823E-05
   1    4   93     1    93    5.9963E+00  1.9727E-03   5.9944E+00  0.000E+00  0.000E+00  0.000E+00  1.14103E+02  1.853E+00  4.030E+00  8.383E-04  2.003E-03 -3.016E-05
   1    4   94     1    94    5.9944E+00  1.9722E-03   5.9924E+00  0.000E+00  0.000E+00  0.000E+00  1.13803E+02  1.853E+00  4.029E+00  8.382E-04  2.026E-03 -5.355E-05
   1    4   95     1    95    5.9924E+00  1.9717E-03   5.9904E+00  0.000E+00  0.000E+00  0.000E+00  1.13502E+02  1.852E+00  4.029E+00  8.381E-04  2.027E-03 -5.576E-05
   1    4   96     1    96    5.9904E+00  1.9712E-03   5.9885E+00  0.000E+00  0.000E+00  0.000E+00  1.13202E+02  1.852E+00  4.028E+00  8.380E-04  2.029E-03 -5.796E-05
   1    4   97     1    97    5.9885E+00  1.9707E-03   5.9865E+00  0.000E+00  0.000E+00  0.000E+00  1.12902E+02  1.852E+00  4.028E+00  8.379E-04  2.031E-03 -6.015E-05
   1    4   98     1    98    5.9865E+00  1.9701E-03   5.9845E+00  0.000E+00  0.000E+00  0.000E+00  1.12602E+02  1.852E+00  4.028E+00  8.378E-04  2.032E-03 -6.233E-05
   1    4   99     1    99    5.9845E+00  1.9696E-03   5.9825E+00  0.000E+00  0.000E+00  0.000E+00  1.12301E+02  1.851E+00  4.027E+00  8.377E-04  2.034E-03 -6.451E-05
   1    4  100     1   100    5.9825E+00  1.9691E-03   5.9806E+00  0.000E+00  0.000E+00  0.000E+00  1.12001E+02  1.851E+00  4.027E+00  8.376E-04  2.036E-03 -6.674E-05



1
  VOLUMETRIC BUDGET FOR UNSATURATED ZONE BENEATH STREAMS AT END OF TIME STEP  30 STRESS PERIOD  15
  ------------------------------------------------------------------------------------------------

    CUMULATIVE VOLUMES             L**3    RATES FOR THIS TIME STEP         L**3/T
    ------------------                     ------------------------


          STREAM LOSS =     14049333.0000            STREAM LOSS =            0.1994
    CHANGE IN STORAGE =       467587.0312      CHANGE IN STORAGE =       -2.3760E-03
       RECHARGE TO GW =     13581029.0000         RECHARGE TO GW =            0.2014

             TOTAL IN =     14049333.0000               TOTAL IN =            0.2018

            TOTAL OUT =     14048616.0000              TOTAL OUT =            0.2014

             IN - OUT =          717.0000               IN - OUT =        4.4775E-04

  PERCENT DISCREPANCY =            0.00      PERCENT DISCREPANCY =             0.06



1
              HEAD IN LAYER   1 AT END OF TIME STEP  30 IN STRESS PERIOD   15
  ---------------------------------------------------------------------------

          1      2      3      4      5      6      7      8      9     10
         11     12     13     14     15     16     17     18     19     20
         21     22     23     24     25     26     27     28     29     30
         31     32     33     34     35     36     37     38     39     40
         41     42     43     44     45     46     47     48     49     50
         51     52     53     54     55     56     57     58     59     60
         61     62     63     64     65     66     67     68     69     70
         71     72     73     74     75     76     77     78     79     80
         81     82     83     84     85     86     87     88     89     90
         91     92     93     94     95     96     97     98     99    100
 .........................................................................
   1   109.7  109.7  109.7  109.7  109.7  109.7  109.7  109.7  109.6  109.6
       109.6  109.6  109.6  109.6  109.6  109.6  109.6  109.6  109.6  109.5
       109.5  109.5  109.5  109.5  109.5  109.4  109.4  109.4  109.3  109.3
       109.3  109.2  109.2  109.1  109.1  109.0  109.0  108.9  108.8  108.7
       108.7  108.6  108.5  108.4  108.3  108.1  108.0  107.9  107.7  107.6
       107.4  107.2  107.1  106.9  106.7  106.4  106.2  105.9  105.7  105.4
       105.1  104.8  104.5  104.1  103.8  103.4  103.0  102.6  102.1  101.6
       101.2  100.7  100.1   99.6   99.0   98.4   97.8   97.1   96.4   95.7
        95.0   94.2   93.4   92.6   91.7   90.8   89.9   88.9   88.0   87.0
        85.9   84.8   83.7   82.6   81.4   80.2   78.9   77.7   76.4   75.0
   2   109.7  109.7  109.7  109.7  109.7  109.7  109.7  109.7  109.7  109.6
       109.6  109.6  109.6  109.6  109.6  109.6  109.6  109.6  109.6  109.6
       109.5  109.5  109.5  109.5  109.5  109.4  109.4  109.4  109.3  109.3
       109.3  109.2  109.2  109.1  109.1  109.0  109.0  108.9  108.8  108.7
       108.7  108.6  108.5  108.4  108.3  108.1  108.0  107.9  107.7  107.6
       107.4  107.2  107.1  106.9  106.7  106.4  106.2  105.9  105.7  105.4
       105.1  104.8  104.5  104.1  103.8  103.4  103.0  102.6  102.1  101.7
       101.2  100.7  100.1   99.6   99.0   98.4   97.8   97.1   96.4   95.7
        95.0   94.2   93.4   92.6   91.7   90.8   89.9   89.0   88.0   87.0
        85.9   84.8   83.7   82.6   81.4   80.2   78.9   77.7   76.4   75.0
   3   109.7  109.7  109.7  109.7  109.7  109.7  109.7  109.7  109.7  109.6
       109.6  109.6  109.6  109.6  109.6  109.6  109.6  109.6  109.6  109.6
       109.5  109.5  109.5  109.5  109.5  109.4  109.4  109.4  109.3  109.3
       109.3  109.2  109.2  109.1  109.1  109.0  109.0  108.9  108.8  108.7
       108.7  108.6  108.5  108.4  108.3  108.1  108.0  107.9  107.7  107.6
       107.4  107.2  107.1  106.9  106.7  106.4  106.2  105.9  105.7  105.4
       105.1  104.8  104.5  104.1  103.8  103.4  103.0  102.6  102.1  101.7
       101.2  100.7  100.1   99.6   99.0   98.4   97.8   97.1   96.4   95.7
        95.0   94.2   93.4   92.6   91.7   90.8   89.9   89.0   88.0   87.0
        85.9   84.8   83.7   82.6   81.4   80.2   79.0   77.7   76.4   75.0
   4   109.7  109.7  109.7  109.7  109.7  109.7  109.7  109.7  109.7  109.7
       109.6  109.6  109.6  109.6  109.6  109.6  109.6  109.6  109.6  109.6
       109.5  109.5  109.5  109.5  109.5  109.4  109.4  109.4  109.3  109.3
       109.3  109.2  109.2  109.1  109.1  109.0  109.0  108.9  108.8  108.8
       108.7  108.6  108.5  108.4  108.3  108.2  108.0  107.9  107.7  107.6
       107.4  107.3  107.1  106.9  106.7  106.4  106.2  106.0  105.7  105.4
       105.1  104.8  104.5  104.1  103.8  103.4  103.0  102.6  102.1  101.7
       101.2  100.7  100.1   99.6   99.0   98.4   97.8   97.1   96.4   95.7
        95.0   94.2   93.4   92.6   91.7   90.8   89.9   89.0   88.0   87.0
        85.9   84.8   83.7   82.6   81.4   80.2   79.0   77.7   76.4   75.0
   5   109.7  109.7  109.7  109.7  109.7  109.7  109.7  109.7  109.7  109.6
       109.6  109.6  109.6  109.6  109.6  109.6  109.6  109.6  109.6  109.6
       109.5  109.5  109.5  109.5  109.5  109.4  109.4  109.4  109.3  109.3
       109.3  109.2  109.2  109.1  109.1  109.0  109.0  108.9  108.8  108.7
       108.7  108.6  108.5  108.4  108.3  108.1  108.0  107.9  107.7  107.6
       107.4  107.2  107.1  106.9  106.7  106.4  106.2  105.9  105.7  105.4
       105.1  104.8  104.5  104.1  103.8  103.4  103.0  102.6  102.1  101.7
       101.2  100.7  100.1   99.6   99.0   98.4   97.8   97.1   96.4   95.7
        95.0   94.2   93.4   92.6   91.7   90.8   89.9   89.0   88.0   87.0
        85.9   84.8   83.7   82.6   81.4   80.2   79.0   77.7   76.4   75.0
   6   109.7  109.7  109.7  109.7  109.7  109.7  109.7  109.7  109.7  109.6
       109.6  109.6  109.6  109.6  109.6  109.6  109.6  109.6  109.6  109.6
       109.5  109.5  109.5  109.5  109.5  109.4  109.4  109.4  109.3  109.3
       109.3  109.2  109.2  109.1  109.1  109.0  109.0  108.9  108.8  108.7
       108.7  108.6  108.5  108.4  108.3  108.1  108.0  107.9  107.7  107.6
       107.4  107.2  107.1  106.9  106.7  106.4  106.2  105.9  105.7  105.4
       105.1  104.8  104.5  104.1  103.8  103.4  103.0  102.6  102.1  101.7
       101.2  100.7  100.1   99.6   99.0   98.4   97.8   97.1   96.4   95.7
        95.0   94.2   93.4   92.6   91.7   90.8   89.9   89.0   88.0   87.0
        85.9   84.8   83.7   82.6   81.4   80.2   78.9   77.7   76.4   75.0
   7   109.7  109.7  109.7  109.7  109.7  109.7  109.7  109.7  109.6  109.6
       109.6  109.6  109.6  109.6  109.6  109.6  109.6  109.6  109.6  109.5
       109.5  109.5  109.5  109.5  109.5  109.4  109.4  109.4  109.3  109.3
       109.3  109.2  109.2  109.1  109.1  109.0  109.0  108.9  108.8  108.7
       108.7  108.6  108.5  108.4  108.3  108.1  108.0  107.9  107.7  107.6
       107.4  107.2  107.1  106.9  106.7  106.4  106.2  105.9  105.7  105.4
       105.1  104.8  104.5  104.1  103.8  103.4  103.0  102.6  102.1  101.6
       101.2  100.7  100.1   99.6   99.0   98.4   97.8   97.1   96.4   95.7
        95.0   94.2   93.4   92.6   91.7   90.8   89.9   88.9   88.0   87.0
        85.9   84.8   83.7   82.6   81.4   80.2   78.9   77.7   76.4   75.0
1
  VOLUMETRIC BUDGET FOR ENTIRE MODEL AT END OF TIME STEP 30 IN STRESS PERIOD  15
  ------------------------------------------------------------------------------

     CUMULATIVE VOLUMES      L**3       RATES FOR THIS TIME STEP      L**3/T
     ------------------                 ------------------------

           IN:                                      IN:
           ---                                      ---
             STORAGE =    10090154.0000               STORAGE =           0.1068
       CONSTANT HEAD =           0.0000         CONSTANT HEAD =           0.0000
     HEAD DEP BOUNDS =           0.0000       HEAD DEP BOUNDS =           0.0000
      STREAM LEAKAGE =    13581000.0000        STREAM LEAKAGE =           0.2014

            TOTAL IN =    23671154.0000              TOTAL IN =           0.3081

          OUT:                                     OUT:
          ----                                     ----
             STORAGE =     7661949.0000               STORAGE =       6.1107E-02
       CONSTANT HEAD =           0.0000         CONSTANT HEAD =           0.0000
     HEAD DEP BOUNDS =    16008946.0000       HEAD DEP BOUNDS =           0.2470
      STREAM LEAKAGE =           0.0000        STREAM LEAKAGE =           0.0000

           TOTAL OUT =    23670896.0000             TOTAL OUT =           0.3081

            IN - OUT =         258.0000              IN - OUT =       3.9935E-05

 PERCENT DISCREPANCY =           0.00     PERCENT DISCREPANCY =           0.01






          TIME SUMMARY AT END OF TIME STEP  30 IN STRESS PERIOD   15
                    SECONDS     MINUTES      HOURS       DAYS        YEARS
                    -----------------------------------------------------------
   TIME STEP LENGTH 2.49961E+05  4166.0      69.434      2.8931     7.92080E-03
 STRESS PERIOD TIME 2.59200E+06  43200.      720.00      30.000     8.21355E-02
         TOTAL TIME 3.88800E+07 6.48000E+05  10800.      450.00      1.2320    
1
1
                            STRESS PERIOD NO.   16, LENGTH =   2592000.    
                            -----------------------------------------------

                              NUMBER OF TIME STEPS =    30

                               MULTIPLIER FOR DELT =     1.100

                            INITIAL TIME STEP SIZE =   15757.40    

 REUSING NON-PARAMETER GHB CELLS FROM LAST STRESS PERIOD

      7 GHB CELLS



 CLASSIFICATION & COUNT OF STREAM SEGMENTS BASED ON SOURCE OF INFLOW:

                HEADWATER     DIVERSION     RECEIVES TRIBUTARY FLOW
                ---------     ---------     -----------------------
                     1              0               0



                    INPUT DATA FOR EACH STREAM SEGMENT
 ---------------------------------------------------------------------------------------------

 SEGMENT    SEG.     INFLOW   OVERLAND   STREAM    STREAM   ICALC  OUTFLOW  DIVERSION PRIORITY
    NO.    LENGTH     RATE     RUNOFF      ET       PPT.    METH.  TO SEG.  FROM SEG.    NO.

      1  2.000E+04 2.241E+01 0.000E+00 0.000E+00 0.000E+00    2        0        0        0


         STREAMBED PROPERTIES AND STREAM DIMENSIONS

 SEGMENT     BED HYD. COND.      BED THICKNESS     ELEV.-TOP OF BED     WIDTH OF STREAM     DEPTH OF STREAM    STREAM ROUGHNESS
    No.     UPPER     LOWER     UPPER     LOWER     UPPER     LOWER     UPPER     LOWER     UPPER     LOWER   CHANNEL      BANK

     1  3.500E-07 3.500E-07                                                                                 3.000E-02 4.000E-02

  EIGHT POINT CROSS-SECTION DATA FOR SEGMENTS WITH ICALC = 2
    X VALUES X VALUES START FROM LEFT SIDE LOOKING DOWNSTREAM

     SEGMENT NO.        X1        X2        X3        X4        X5        X6        X7        X8
            1      0.000E+00 2.000E+00 4.000E+00 6.000E+00 8.000E+00 1.000E+01 1.200E+01 1.400E+01

    Z VALUES ARE RELATIVE TO STREAMBED ELEVATION

     SEGMENT NO.          Z1        Z2        Z3        Z4        Z5        Z6        Z7        Z8
            1      6.000E+00 4.500E+00 3.500E+00 0.000E+00 3.000E-01 3.500E+00 4.500E+00 6.000E+00



 
 SOLVING FOR HEAD 

 NO OUTPUT CONTROL FOR STRESS PERIOD   16   TIME STEP   1
 
 SOLVING FOR HEAD 

 NO OUTPUT CONTROL FOR STRESS PERIOD   16   TIME STEP   2
 
 SOLVING FOR HEAD 

 NO OUTPUT CONTROL FOR STRESS PERIOD   16   TIME STEP   3
 
 SOLVING FOR HEAD 

 NO OUTPUT CONTROL FOR STRESS PERIOD   16   TIME STEP   4
 
 SOLVING FOR HEAD 

 NO OUTPUT CONTROL FOR STRESS PERIOD   16   TIME STEP   5
 
 SOLVING FOR HEAD 

 NO OUTPUT CONTROL FOR STRESS PERIOD   16   TIME STEP   6
 
 SOLVING FOR HEAD 

 NO OUTPUT CONTROL FOR STRESS PERIOD   16   TIME STEP   7
 
 SOLVING FOR HEAD 

 NO OUTPUT CONTROL FOR STRESS PERIOD   16   TIME STEP   8
 
 SOLVING FOR HEAD 

 NO OUTPUT CONTROL FOR STRESS PERIOD   16   TIME STEP   9
 
 SOLVING FOR HEAD 

 NO OUTPUT CONTROL FOR STRESS PERIOD   16   TIME STEP  10
 
 SOLVING FOR HEAD 

 NO OUTPUT CONTROL FOR STRESS PERIOD   16   TIME STEP  11
 
 SOLVING FOR HEAD 

 NO OUTPUT CONTROL FOR STRESS PERIOD   16   TIME STEP  12
 
 SOLVING FOR HEAD 

 NO OUTPUT CONTROL FOR STRESS PERIOD   16   TIME STEP  13
 
 SOLVING FOR HEAD 

 NO OUTPUT CONTROL FOR STRESS PERIOD   16   TIME STEP  14
 
 SOLVING FOR HEAD 

 NO OUTPUT CONTROL FOR STRESS PERIOD   16   TIME STEP  15
 
 SOLVING FOR HEAD 

 NO OUTPUT CONTROL FOR STRESS PERIOD   16   TIME STEP  16
 
 SOLVING FOR HEAD 

 NO OUTPUT CONTROL FOR STRESS PERIOD   16   TIME STEP  17
 
 SOLVING FOR HEAD 

 NO OUTPUT CONTROL FOR STRESS PERIOD   16   TIME STEP  18
 
 SOLVING FOR HEAD 

 NO OUTPUT CONTROL FOR STRESS PERIOD   16   TIME STEP  19
 
 SOLVING FOR HEAD 

 NO OUTPUT CONTROL FOR STRESS PERIOD   16   TIME STEP  20
 
 SOLVING FOR HEAD 

 NO OUTPUT CONTROL FOR STRESS PERIOD   16   TIME STEP  21
 
 SOLVING FOR HEAD 

 NO OUTPUT CONTROL FOR STRESS PERIOD   16   TIME STEP  22
 
 SOLVING FOR HEAD 

 NO OUTPUT CONTROL FOR STRESS PERIOD   16   TIME STEP  23
 
 SOLVING FOR HEAD 

 NO OUTPUT CONTROL FOR STRESS PERIOD   16   TIME STEP  24
 
 SOLVING FOR HEAD 

 NO OUTPUT CONTROL FOR STRESS PERIOD   16   TIME STEP  25
 
 SOLVING FOR HEAD 

 NO OUTPUT CONTROL FOR STRESS PERIOD   16   TIME STEP  26
 
 SOLVING FOR HEAD 

 NO OUTPUT CONTROL FOR STRESS PERIOD   16   TIME STEP  27
 
 SOLVING FOR HEAD 

 NO OUTPUT CONTROL FOR STRESS PERIOD   16   TIME STEP  28
 
 SOLVING FOR HEAD 

 NO OUTPUT CONTROL FOR STRESS PERIOD   16   TIME STEP  29
 
 SOLVING FOR HEAD 

 NO OUTPUT CONTROL FOR STRESS PERIOD   16   TIME STEP  30
1
  VOLUMETRIC BUDGET FOR UNSATURATED ZONE BENEATH STREAMS AT END OF TIME STEP  30 STRESS PERIOD  16
  ------------------------------------------------------------------------------------------------

    CUMULATIVE VOLUMES             L**3    RATES FOR THIS TIME STEP         L**3/T
    ------------------                     ------------------------


          STREAM LOSS =     15529663.0000            STREAM LOSS =            0.5711
    CHANGE IN STORAGE =       837390.3125      CHANGE IN STORAGE =       -1.6083E-03
       RECHARGE TO GW =     14691522.0000         RECHARGE TO GW =            0.5727

             TOTAL IN =     15529663.0000               TOTAL IN =            0.5727

            TOTAL OUT =     15528912.0000              TOTAL OUT =            0.5727

             IN - OUT =          751.0000               IN - OUT =        1.9011E-07

  PERCENT DISCREPANCY =            0.00      PERCENT DISCREPANCY =             0.00



1
  VOLUMETRIC BUDGET FOR ENTIRE MODEL AT END OF TIME STEP 30 IN STRESS PERIOD  16
  ------------------------------------------------------------------------------

     CUMULATIVE VOLUMES      L**3       RATES FOR THIS TIME STEP      L**3/T
     ------------------                 ------------------------

           IN:                                      IN:
           ---                                      ---
             STORAGE =    10157709.0000               STORAGE =           0.0000
       CONSTANT HEAD =           0.0000         CONSTANT HEAD =           0.0000
     HEAD DEP BOUNDS =           0.0000       HEAD DEP BOUNDS =           0.0000
      STREAM LEAKAGE =    14691531.0000        STREAM LEAKAGE =           0.5727

            TOTAL IN =    24849240.0000              TOTAL IN =           0.5727

          OUT:                                     OUT:
          ----                                     ----
             STORAGE =     8192273.5000               STORAGE =           0.3186
       CONSTANT HEAD =           0.0000         CONSTANT HEAD =           0.0000
     HEAD DEP BOUNDS =    16656733.0000       HEAD DEP BOUNDS =           0.2541
      STREAM LEAKAGE =           0.0000        STREAM LEAKAGE =           0.0000

           TOTAL OUT =    24849006.0000             TOTAL OUT =           0.5727

            IN - OUT =         234.0000              IN - OUT =       2.6166E-05

 PERCENT DISCREPANCY =           0.00     PERCENT DISCREPANCY =           0.00






          TIME SUMMARY AT END OF TIME STEP  30 IN STRESS PERIOD   16
                    SECONDS     MINUTES      HOURS       DAYS        YEARS
                    -----------------------------------------------------------
   TIME STEP LENGTH 2.49961E+05  4166.0      69.434      2.8931     7.92080E-03
 STRESS PERIOD TIME 2.59200E+06  43200.      720.00      30.000     8.21355E-02
         TOTAL TIME 4.14720E+07 6.91200E+05  11520.      480.00      1.3142    
1
1
                            STRESS PERIOD NO.   17, LENGTH =   2592000.    
                            -----------------------------------------------

                              NUMBER OF TIME STEPS =    30

                               MULTIPLIER FOR DELT =     1.100

                            INITIAL TIME STEP SIZE =   15757.40    

 REUSING NON-PARAMETER GHB CELLS FROM LAST STRESS PERIOD

      7 GHB CELLS



 CLASSIFICATION & COUNT OF STREAM SEGMENTS BASED ON SOURCE OF INFLOW:

                HEADWATER     DIVERSION     RECEIVES TRIBUTARY FLOW
                ---------     ---------     -----------------------
                     1              0               0



                    INPUT DATA FOR EACH STREAM SEGMENT
 ---------------------------------------------------------------------------------------------

 SEGMENT    SEG.     INFLOW   OVERLAND   STREAM    STREAM   ICALC  OUTFLOW  DIVERSION PRIORITY
    NO.    LENGTH     RATE     RUNOFF      ET       PPT.    METH.  TO SEG.  FROM SEG.    NO.

      1  2.000E+04 1.747E+01 0.000E+00 0.000E+00 0.000E+00    2        0        0        0


         STREAMBED PROPERTIES AND STREAM DIMENSIONS

 SEGMENT     BED HYD. COND.      BED THICKNESS     ELEV.-TOP OF BED     WIDTH OF STREAM     DEPTH OF STREAM    STREAM ROUGHNESS
    No.     UPPER     LOWER     UPPER     LOWER     UPPER     LOWER     UPPER     LOWER     UPPER     LOWER   CHANNEL      BANK

     1  3.500E-07 3.500E-07                                                                                 3.000E-02 4.000E-02

  EIGHT POINT CROSS-SECTION DATA FOR SEGMENTS WITH ICALC = 2
    X VALUES X VALUES START FROM LEFT SIDE LOOKING DOWNSTREAM

     SEGMENT NO.        X1        X2        X3        X4        X5        X6        X7        X8
            1      0.000E+00 2.000E+00 4.000E+00 6.000E+00 8.000E+00 1.000E+01 1.200E+01 1.400E+01

    Z VALUES ARE RELATIVE TO STREAMBED ELEVATION

     SEGMENT NO.          Z1        Z2        Z3        Z4        Z5        Z6        Z7        Z8
            1      6.000E+00 4.500E+00 3.500E+00 0.000E+00 3.000E-01 3.500E+00 4.500E+00 6.000E+00



 
 SOLVING FOR HEAD 

 NO OUTPUT CONTROL FOR STRESS PERIOD   17   TIME STEP   1
 
 SOLVING FOR HEAD 

 NO OUTPUT CONTROL FOR STRESS PERIOD   17   TIME STEP   2
 
 SOLVING FOR HEAD 

 NO OUTPUT CONTROL FOR STRESS PERIOD   17   TIME STEP   3
 
 SOLVING FOR HEAD 

 NO OUTPUT CONTROL FOR STRESS PERIOD   17   TIME STEP   4
 
 SOLVING FOR HEAD 

 NO OUTPUT CONTROL FOR STRESS PERIOD   17   TIME STEP   5
 
 SOLVING FOR HEAD 

 NO OUTPUT CONTROL FOR STRESS PERIOD   17   TIME STEP   6
 
 SOLVING FOR HEAD 

 NO OUTPUT CONTROL FOR STRESS PERIOD   17   TIME STEP   7
 
 SOLVING FOR HEAD 

 NO OUTPUT CONTROL FOR STRESS PERIOD   17   TIME STEP   8
 
 SOLVING FOR HEAD 

 NO OUTPUT CONTROL FOR STRESS PERIOD   17   TIME STEP   9
 
 SOLVING FOR HEAD 

 NO OUTPUT CONTROL FOR STRESS PERIOD   17   TIME STEP  10
 
 SOLVING FOR HEAD 

 NO OUTPUT CONTROL FOR STRESS PERIOD   17   TIME STEP  11
 
 SOLVING FOR HEAD 

 NO OUTPUT CONTROL FOR STRESS PERIOD   17   TIME STEP  12
 
 SOLVING FOR HEAD 

 NO OUTPUT CONTROL FOR STRESS PERIOD   17   TIME STEP  13
 
 SOLVING FOR HEAD 

 NO OUTPUT CONTROL FOR STRESS PERIOD   17   TIME STEP  14
 
 SOLVING FOR HEAD 

 NO OUTPUT CONTROL FOR STRESS PERIOD   17   TIME STEP  15
 
 SOLVING FOR HEAD 

 NO OUTPUT CONTROL FOR STRESS PERIOD   17   TIME STEP  16
 
 SOLVING FOR HEAD 

 NO OUTPUT CONTROL FOR STRESS PERIOD   17   TIME STEP  17
 
 SOLVING FOR HEAD 

 NO OUTPUT CONTROL FOR STRESS PERIOD   17   TIME STEP  18
 
 SOLVING FOR HEAD 

 NO OUTPUT CONTROL FOR STRESS PERIOD   17   TIME STEP  19
 
 SOLVING FOR HEAD 

 NO OUTPUT CONTROL FOR STRESS PERIOD   17   TIME STEP  20
 
 SOLVING FOR HEAD 

 NO OUTPUT CONTROL FOR STRESS PERIOD   17   TIME STEP  21
 
 SOLVING FOR HEAD 

 NO OUTPUT CONTROL FOR STRESS PERIOD   17   TIME STEP  22
 
 SOLVING FOR HEAD 

 NO OUTPUT CONTROL FOR STRESS PERIOD   17   TIME STEP  23
 
 SOLVING FOR HEAD 

 NO OUTPUT CONTROL FOR STRESS PERIOD   17   TIME STEP  24
 
 SOLVING FOR HEAD 

 NO OUTPUT CONTROL FOR STRESS PERIOD   17   TIME STEP  25
 
 SOLVING FOR HEAD 

 NO OUTPUT CONTROL FOR STRESS PERIOD   17   TIME STEP  26
 
 SOLVING FOR HEAD 

 NO OUTPUT CONTROL FOR STRESS PERIOD   17   TIME STEP  27
 
 SOLVING FOR HEAD 

 NO OUTPUT CONTROL FOR STRESS PERIOD   17   TIME STEP  28
 
 SOLVING FOR HEAD 

 NO OUTPUT CONTROL FOR STRESS PERIOD   17   TIME STEP  29
 
 SOLVING FOR HEAD 

 NO OUTPUT CONTROL FOR STRESS PERIOD   17   TIME STEP  30
1
  VOLUMETRIC BUDGET FOR UNSATURATED ZONE BENEATH STREAMS AT END OF TIME STEP  30 STRESS PERIOD  17
  ------------------------------------------------------------------------------------------------

    CUMULATIVE VOLUMES             L**3    RATES FOR THIS TIME STEP         L**3/T
    ------------------                     ------------------------


          STREAM LOSS =     16728377.0000            STREAM LOSS =            0.4625
    CHANGE IN STORAGE =       759711.7500      CHANGE IN STORAGE =       -3.9403E-03
       RECHARGE TO GW =     15967929.0000         RECHARGE TO GW =            0.4664

             TOTAL IN =     16728377.0000               TOTAL IN =            0.4664

            TOTAL OUT =     16727641.0000              TOTAL OUT =            0.4664

             IN - OUT =          736.0000               IN - OUT =        2.8778E-07

  PERCENT DISCREPANCY =            0.00      PERCENT DISCREPANCY =             0.00



1
  VOLUMETRIC BUDGET FOR ENTIRE MODEL AT END OF TIME STEP 30 IN STRESS PERIOD  17
  ------------------------------------------------------------------------------

     CUMULATIVE VOLUMES      L**3       RATES FOR THIS TIME STEP      L**3/T
     ------------------                 ------------------------

           IN:                                      IN:
           ---                                      ---
             STORAGE =    10159846.0000               STORAGE =       5.6514E-04
       CONSTANT HEAD =           0.0000         CONSTANT HEAD =           0.0000
     HEAD DEP BOUNDS =           0.0000       HEAD DEP BOUNDS =           0.0000
      STREAM LEAKAGE =    15967915.0000        STREAM LEAKAGE =           0.4664

            TOTAL IN =    26127760.0000              TOTAL IN =           0.4670

          OUT:                                     OUT:
          ----                                     ----
             STORAGE =     8802019.0000               STORAGE =           0.2088
       CONSTANT HEAD =           0.0000         CONSTANT HEAD =           0.0000
     HEAD DEP BOUNDS =    17325464.0000       HEAD DEP BOUNDS =           0.2581
      STREAM LEAKAGE =           0.0000        STREAM LEAKAGE =           0.0000

           TOTAL OUT =    26127484.0000             TOTAL OUT =           0.4669

            IN - OUT =         276.0000              IN - OUT =       6.2376E-05

 PERCENT DISCREPANCY =           0.00     PERCENT DISCREPANCY =           0.01






          TIME SUMMARY AT END OF TIME STEP  30 IN STRESS PERIOD   17
                    SECONDS     MINUTES      HOURS       DAYS        YEARS
                    -----------------------------------------------------------
   TIME STEP LENGTH 2.49961E+05  4166.0      69.434      2.8931     7.92080E-03
 STRESS PERIOD TIME 2.59200E+06  43200.      720.00      30.000     8.21355E-02
         TOTAL TIME 4.40640E+07 7.34400E+05  12240.      510.00      1.3963    
1
1
                            STRESS PERIOD NO.   18, LENGTH =   2592000.    
                            -----------------------------------------------

                              NUMBER OF TIME STEPS =    30

                               MULTIPLIER FOR DELT =     1.100

                            INITIAL TIME STEP SIZE =   15757.40    

 REUSING NON-PARAMETER GHB CELLS FROM LAST STRESS PERIOD

      7 GHB CELLS



 CLASSIFICATION & COUNT OF STREAM SEGMENTS BASED ON SOURCE OF INFLOW:

                HEADWATER     DIVERSION     RECEIVES TRIBUTARY FLOW
                ---------     ---------     -----------------------
                     1              0               0



                    INPUT DATA FOR EACH STREAM SEGMENT
 ---------------------------------------------------------------------------------------------

 SEGMENT    SEG.     INFLOW   OVERLAND   STREAM    STREAM   ICALC  OUTFLOW  DIVERSION PRIORITY
    NO.    LENGTH     RATE     RUNOFF      ET       PPT.    METH.  TO SEG.  FROM SEG.    NO.

      1  2.000E+04 4.047E+01 0.000E+00 0.000E+00 0.000E+00    2        0        0        0


         STREAMBED PROPERTIES AND STREAM DIMENSIONS

 SEGMENT     BED HYD. COND.      BED THICKNESS     ELEV.-TOP OF BED     WIDTH OF STREAM     DEPTH OF STREAM    STREAM ROUGHNESS
    No.     UPPER     LOWER     UPPER     LOWER     UPPER     LOWER     UPPER     LOWER     UPPER     LOWER   CHANNEL      BANK

     1  3.500E-07 3.500E-07                                                                                 3.000E-02 4.000E-02

  EIGHT POINT CROSS-SECTION DATA FOR SEGMENTS WITH ICALC = 2
    X VALUES X VALUES START FROM LEFT SIDE LOOKING DOWNSTREAM

     SEGMENT NO.        X1        X2        X3        X4        X5        X6        X7        X8
            1      0.000E+00 2.000E+00 4.000E+00 6.000E+00 8.000E+00 1.000E+01 1.200E+01 1.400E+01

    Z VALUES ARE RELATIVE TO STREAMBED ELEVATION

     SEGMENT NO.          Z1        Z2        Z3        Z4        Z5        Z6        Z7        Z8
            1      6.000E+00 4.500E+00 3.500E+00 0.000E+00 3.000E-01 3.500E+00 4.500E+00 6.000E+00



 
 SOLVING FOR HEAD 

 NO OUTPUT CONTROL FOR STRESS PERIOD   18   TIME STEP   1
 
 SOLVING FOR HEAD 

 NO OUTPUT CONTROL FOR STRESS PERIOD   18   TIME STEP   2
 
 SOLVING FOR HEAD 

 NO OUTPUT CONTROL FOR STRESS PERIOD   18   TIME STEP   3
 
 SOLVING FOR HEAD 

 NO OUTPUT CONTROL FOR STRESS PERIOD   18   TIME STEP   4
 
 SOLVING FOR HEAD 

 NO OUTPUT CONTROL FOR STRESS PERIOD   18   TIME STEP   5
 
 SOLVING FOR HEAD 

 NO OUTPUT CONTROL FOR STRESS PERIOD   18   TIME STEP   6
 
 SOLVING FOR HEAD 

 NO OUTPUT CONTROL FOR STRESS PERIOD   18   TIME STEP   7
 
 SOLVING FOR HEAD 

 NO OUTPUT CONTROL FOR STRESS PERIOD   18   TIME STEP   8
 
 SOLVING FOR HEAD 

 NO OUTPUT CONTROL FOR STRESS PERIOD   18   TIME STEP   9
 
 SOLVING FOR HEAD 

 NO OUTPUT CONTROL FOR STRESS PERIOD   18   TIME STEP  10
 
 SOLVING FOR HEAD 

 NO OUTPUT CONTROL FOR STRESS PERIOD   18   TIME STEP  11
 
 SOLVING FOR HEAD 

 NO OUTPUT CONTROL FOR STRESS PERIOD   18   TIME STEP  12
 
 SOLVING FOR HEAD 

 NO OUTPUT CONTROL FOR STRESS PERIOD   18   TIME STEP  13
 
 SOLVING FOR HEAD 

 NO OUTPUT CONTROL FOR STRESS PERIOD   18   TIME STEP  14
 
 SOLVING FOR HEAD 

 NO OUTPUT CONTROL FOR STRESS PERIOD   18   TIME STEP  15
 
 SOLVING FOR HEAD 

 NO OUTPUT CONTROL FOR STRESS PERIOD   18   TIME STEP  16
 
 SOLVING FOR HEAD 

 NO OUTPUT CONTROL FOR STRESS PERIOD   18   TIME STEP  17
 
 SOLVING FOR HEAD 

 NO OUTPUT CONTROL FOR STRESS PERIOD   18   TIME STEP  18
 
 SOLVING FOR HEAD 

 NO OUTPUT CONTROL FOR STRESS PERIOD   18   TIME STEP  19
 
 SOLVING FOR HEAD 

 NO OUTPUT CONTROL FOR STRESS PERIOD   18   TIME STEP  20
 
 SOLVING FOR HEAD 

 NO OUTPUT CONTROL FOR STRESS PERIOD   18   TIME STEP  21
 
 SOLVING FOR HEAD 

 NO OUTPUT CONTROL FOR STRESS PERIOD   18   TIME STEP  22
 
 SOLVING FOR HEAD 

 NO OUTPUT CONTROL FOR STRESS PERIOD   18   TIME STEP  23
 
 SOLVING FOR HEAD 

 NO OUTPUT CONTROL FOR STRESS PERIOD   18   TIME STEP  24
 
 SOLVING FOR HEAD 

 NO OUTPUT CONTROL FOR STRESS PERIOD   18   TIME STEP  25
 
 SOLVING FOR HEAD 

 NO OUTPUT CONTROL FOR STRESS PERIOD   18   TIME STEP  26
 
 SOLVING FOR HEAD 

 NO OUTPUT CONTROL FOR STRESS PERIOD   18   TIME STEP  27
 
 SOLVING FOR HEAD 

 NO OUTPUT CONTROL FOR STRESS PERIOD   18   TIME STEP  28
 
 SOLVING FOR HEAD 

 NO OUTPUT CONTROL FOR STRESS PERIOD   18   TIME STEP  29
 
 SOLVING FOR HEAD 

 NO OUTPUT CONTROL FOR STRESS PERIOD   18   TIME STEP  30
1
  VOLUMETRIC BUDGET FOR UNSATURATED ZONE BENEATH STREAMS AT END OF TIME STEP  30 STRESS PERIOD  18
  ------------------------------------------------------------------------------------------------

    CUMULATIVE VOLUMES             L**3    RATES FOR THIS TIME STEP         L**3/T
    ------------------                     ------------------------


          STREAM LOSS =     19290146.0000            STREAM LOSS =            0.9883
    CHANGE IN STORAGE =      1119121.6250      CHANGE IN STORAGE =       -8.9616E-03
       RECHARGE TO GW =     18170292.0000         RECHARGE TO GW =            0.9973

             TOTAL IN =     19290146.0000               TOTAL IN =            0.9973

            TOTAL OUT =     19289414.0000              TOTAL OUT =            0.9973

             IN - OUT =          732.0000               IN - OUT =        4.0978E-08

  PERCENT DISCREPANCY =            0.00      PERCENT DISCREPANCY =             0.00



1
  VOLUMETRIC BUDGET FOR ENTIRE MODEL AT END OF TIME STEP 30 IN STRESS PERIOD  18
  ------------------------------------------------------------------------------

     CUMULATIVE VOLUMES      L**3       RATES FOR THIS TIME STEP      L**3/T
     ------------------                 ------------------------

           IN:                                      IN:
           ---                                      ---
             STORAGE =    10159978.0000               STORAGE =           0.0000
       CONSTANT HEAD =           0.0000         CONSTANT HEAD =           0.0000
     HEAD DEP BOUNDS =           0.0000       HEAD DEP BOUNDS =           0.0000
      STREAM LEAKAGE =    18170286.0000        STREAM LEAKAGE =           0.9973

            TOTAL IN =    28330264.0000              TOTAL IN =           0.9973

          OUT:                                     OUT:
          ----                                     ----
             STORAGE =    10305744.0000               STORAGE =           0.7179
       CONSTANT HEAD =           0.0000         CONSTANT HEAD =           0.0000
     HEAD DEP BOUNDS =    18024146.0000       HEAD DEP BOUNDS =           0.2793
      STREAM LEAKAGE =           0.0000        STREAM LEAKAGE =           0.0000

           TOTAL OUT =    28329890.0000             TOTAL OUT =           0.9972

            IN - OUT =         374.0000              IN - OUT =       1.2624E-04

 PERCENT DISCREPANCY =           0.00     PERCENT DISCREPANCY =           0.01






          TIME SUMMARY AT END OF TIME STEP  30 IN STRESS PERIOD   18
                    SECONDS     MINUTES      HOURS       DAYS        YEARS
                    -----------------------------------------------------------
   TIME STEP LENGTH 2.49961E+05  4166.0      69.434      2.8931     7.92080E-03
 STRESS PERIOD TIME 2.59200E+06  43200.      720.00      30.000     8.21355E-02
         TOTAL TIME 4.66560E+07 7.77600E+05  12960.      540.00      1.4784    
1
1
                            STRESS PERIOD NO.   19, LENGTH =   2592000.    
                            -----------------------------------------------

                              NUMBER OF TIME STEPS =    30

                               MULTIPLIER FOR DELT =     1.100

                            INITIAL TIME STEP SIZE =   15757.40    

 REUSING NON-PARAMETER GHB CELLS FROM LAST STRESS PERIOD

      7 GHB CELLS



 CLASSIFICATION & COUNT OF STREAM SEGMENTS BASED ON SOURCE OF INFLOW:

                HEADWATER     DIVERSION     RECEIVES TRIBUTARY FLOW
                ---------     ---------     -----------------------
                     1              0               0



                    INPUT DATA FOR EACH STREAM SEGMENT
 ---------------------------------------------------------------------------------------------

 SEGMENT    SEG.     INFLOW   OVERLAND   STREAM    STREAM   ICALC  OUTFLOW  DIVERSION PRIORITY
    NO.    LENGTH     RATE     RUNOFF      ET       PPT.    METH.  TO SEG.  FROM SEG.    NO.

      1  2.000E+04 6.556E+01 0.000E+00 0.000E+00 0.000E+00    2        0        0        0


         STREAMBED PROPERTIES AND STREAM DIMENSIONS

 SEGMENT     BED HYD. COND.      BED THICKNESS     ELEV.-TOP OF BED     WIDTH OF STREAM     DEPTH OF STREAM    STREAM ROUGHNESS
    No.     UPPER     LOWER     UPPER     LOWER     UPPER     LOWER     UPPER     LOWER     UPPER     LOWER   CHANNEL      BANK

     1  3.500E-07 3.500E-07                                                                                 3.000E-02 4.000E-02

  EIGHT POINT CROSS-SECTION DATA FOR SEGMENTS WITH ICALC = 2
    X VALUES X VALUES START FROM LEFT SIDE LOOKING DOWNSTREAM

     SEGMENT NO.        X1        X2        X3        X4        X5        X6        X7        X8
            1      0.000E+00 2.000E+00 4.000E+00 6.000E+00 8.000E+00 1.000E+01 1.200E+01 1.400E+01

    Z VALUES ARE RELATIVE TO STREAMBED ELEVATION

     SEGMENT NO.          Z1        Z2        Z3        Z4        Z5        Z6        Z7        Z8
            1      6.000E+00 4.500E+00 3.500E+00 0.000E+00 3.000E-01 3.500E+00 4.500E+00 6.000E+00



 
 SOLVING FOR HEAD 

 NO OUTPUT CONTROL FOR STRESS PERIOD   19   TIME STEP   1
 
 SOLVING FOR HEAD 

 NO OUTPUT CONTROL FOR STRESS PERIOD   19   TIME STEP   2
 
 SOLVING FOR HEAD 

 NO OUTPUT CONTROL FOR STRESS PERIOD   19   TIME STEP   3
 
 SOLVING FOR HEAD 

 NO OUTPUT CONTROL FOR STRESS PERIOD   19   TIME STEP   4
 
 SOLVING FOR HEAD 

 NO OUTPUT CONTROL FOR STRESS PERIOD   19   TIME STEP   5
 
 SOLVING FOR HEAD 

 NO OUTPUT CONTROL FOR STRESS PERIOD   19   TIME STEP   6
 
 SOLVING FOR HEAD 

 NO OUTPUT CONTROL FOR STRESS PERIOD   19   TIME STEP   7
 
 SOLVING FOR HEAD 

 NO OUTPUT CONTROL FOR STRESS PERIOD   19   TIME STEP   8
 
 SOLVING FOR HEAD 

 NO OUTPUT CONTROL FOR STRESS PERIOD   19   TIME STEP   9
 
 SOLVING FOR HEAD 

 NO OUTPUT CONTROL FOR STRESS PERIOD   19   TIME STEP  10
 
 SOLVING FOR HEAD 

 NO OUTPUT CONTROL FOR STRESS PERIOD   19   TIME STEP  11
 
 SOLVING FOR HEAD 

 NO OUTPUT CONTROL FOR STRESS PERIOD   19   TIME STEP  12
 
 SOLVING FOR HEAD 

 NO OUTPUT CONTROL FOR STRESS PERIOD   19   TIME STEP  13
 
 SOLVING FOR HEAD 

 NO OUTPUT CONTROL FOR STRESS PERIOD   19   TIME STEP  14
 
 SOLVING FOR HEAD 

 NO OUTPUT CONTROL FOR STRESS PERIOD   19   TIME STEP  15
 
 SOLVING FOR HEAD 

 NO OUTPUT CONTROL FOR STRESS PERIOD   19   TIME STEP  16
 
 SOLVING FOR HEAD 

 NO OUTPUT CONTROL FOR STRESS PERIOD   19   TIME STEP  17
 
 SOLVING FOR HEAD 

 NO OUTPUT CONTROL FOR STRESS PERIOD   19   TIME STEP  18
 
 SOLVING FOR HEAD 

 NO OUTPUT CONTROL FOR STRESS PERIOD   19   TIME STEP  19
 
 SOLVING FOR HEAD 

 NO OUTPUT CONTROL FOR STRESS PERIOD   19   TIME STEP  20
 
 SOLVING FOR HEAD 

 NO OUTPUT CONTROL FOR STRESS PERIOD   19   TIME STEP  21
 
 SOLVING FOR HEAD 

 NO OUTPUT CONTROL FOR STRESS PERIOD   19   TIME STEP  22
 
 SOLVING FOR HEAD 

 NO OUTPUT CONTROL FOR STRESS PERIOD   19   TIME STEP  23
 
 SOLVING FOR HEAD 

 NO OUTPUT CONTROL FOR STRESS PERIOD   19   TIME STEP  24
 
 SOLVING FOR HEAD 

 NO OUTPUT CONTROL FOR STRESS PERIOD   19   TIME STEP  25
 
 SOLVING FOR HEAD 

 NO OUTPUT CONTROL FOR STRESS PERIOD   19   TIME STEP  26
 
 SOLVING FOR HEAD 

 NO OUTPUT CONTROL FOR STRESS PERIOD   19   TIME STEP  27
 
 SOLVING FOR HEAD 

 NO OUTPUT CONTROL FOR STRESS PERIOD   19   TIME STEP  28
 
 SOLVING FOR HEAD 

 NO OUTPUT CONTROL FOR STRESS PERIOD   19   TIME STEP  29
 
 SOLVING FOR HEAD 

 NO OUTPUT CONTROL FOR STRESS PERIOD   19   TIME STEP  30
1
  VOLUMETRIC BUDGET FOR UNSATURATED ZONE BENEATH STREAMS AT END OF TIME STEP  30 STRESS PERIOD  19
  ------------------------------------------------------------------------------------------------

    CUMULATIVE VOLUMES             L**3    RATES FOR THIS TIME STEP         L**3/T
    ------------------                     ------------------------


          STREAM LOSS =     22972684.0000            STREAM LOSS =            1.4207
    CHANGE IN STORAGE =      1193902.8750      CHANGE IN STORAGE =       -2.7948E-02
       RECHARGE TO GW =     21777688.0000         RECHARGE TO GW =            1.4485

             TOTAL IN =     22972684.0000               TOTAL IN =            1.4487

            TOTAL OUT =     22971590.0000              TOTAL OUT =            1.4485

             IN - OUT =         1094.0000               IN - OUT =        1.3176E-04

  PERCENT DISCREPANCY =            0.00      PERCENT DISCREPANCY =             0.00



1
  VOLUMETRIC BUDGET FOR ENTIRE MODEL AT END OF TIME STEP 30 IN STRESS PERIOD  19
  ------------------------------------------------------------------------------

     CUMULATIVE VOLUMES      L**3       RATES FOR THIS TIME STEP      L**3/T
     ------------------                 ------------------------

           IN:                                      IN:
           ---                                      ---
             STORAGE =    10159978.0000               STORAGE =           0.0000
       CONSTANT HEAD =           0.0000         CONSTANT HEAD =           0.0000
     HEAD DEP BOUNDS =           0.0000       HEAD DEP BOUNDS =           0.0000
      STREAM LEAKAGE =    21777708.0000        STREAM LEAKAGE =           1.4485

            TOTAL IN =    31937686.0000              TOTAL IN =           1.4485

          OUT:                                     OUT:
          ----                                     ----
             STORAGE =    13127689.0000               STORAGE =           1.1287
       CONSTANT HEAD =           0.0000         CONSTANT HEAD =           0.0000
     HEAD DEP BOUNDS =    18809632.0000       HEAD DEP BOUNDS =           0.3198
      STREAM LEAKAGE =           0.0000        STREAM LEAKAGE =           0.0000

           TOTAL OUT =    31937320.0000             TOTAL OUT =           1.4485

            IN - OUT =         366.0000              IN - OUT =       2.1935E-05

 PERCENT DISCREPANCY =           0.00     PERCENT DISCREPANCY =           0.00






          TIME SUMMARY AT END OF TIME STEP  30 IN STRESS PERIOD   19
                    SECONDS     MINUTES      HOURS       DAYS        YEARS
                    -----------------------------------------------------------
   TIME STEP LENGTH 2.49961E+05  4166.0      69.434      2.8931     7.92080E-03
 STRESS PERIOD TIME 2.59200E+06  43200.      720.00      30.000     8.21355E-02
         TOTAL TIME 4.92480E+07 8.20800E+05  13680.      570.00      1.5606    
1
1
                            STRESS PERIOD NO.   20, LENGTH =   2592000.    
                            -----------------------------------------------

                              NUMBER OF TIME STEPS =    30

                               MULTIPLIER FOR DELT =     1.100

                            INITIAL TIME STEP SIZE =   15757.40    

 REUSING NON-PARAMETER GHB CELLS FROM LAST STRESS PERIOD

      7 GHB CELLS



 CLASSIFICATION & COUNT OF STREAM SEGMENTS BASED ON SOURCE OF INFLOW:

                HEADWATER     DIVERSION     RECEIVES TRIBUTARY FLOW
                ---------     ---------     -----------------------
                     1              0               0



                    INPUT DATA FOR EACH STREAM SEGMENT
 ---------------------------------------------------------------------------------------------

 SEGMENT    SEG.     INFLOW   OVERLAND   STREAM    STREAM   ICALC  OUTFLOW  DIVERSION PRIORITY
    NO.    LENGTH     RATE     RUNOFF      ET       PPT.    METH.  TO SEG.  FROM SEG.    NO.

      1  2.000E+04 3.556E+01 0.000E+00 0.000E+00 0.000E+00    2        0        0        0


         STREAMBED PROPERTIES AND STREAM DIMENSIONS

 SEGMENT     BED HYD. COND.      BED THICKNESS     ELEV.-TOP OF BED     WIDTH OF STREAM     DEPTH OF STREAM    STREAM ROUGHNESS
    No.     UPPER     LOWER     UPPER     LOWER     UPPER     LOWER     UPPER     LOWER     UPPER     LOWER   CHANNEL      BANK

     1  3.500E-07 3.500E-07                                                                                 3.000E-02 4.000E-02

  EIGHT POINT CROSS-SECTION DATA FOR SEGMENTS WITH ICALC = 2
    X VALUES X VALUES START FROM LEFT SIDE LOOKING DOWNSTREAM

     SEGMENT NO.        X1        X2        X3        X4        X5        X6        X7        X8
            1      0.000E+00 2.000E+00 4.000E+00 6.000E+00 8.000E+00 1.000E+01 1.200E+01 1.400E+01

    Z VALUES ARE RELATIVE TO STREAMBED ELEVATION

     SEGMENT NO.          Z1        Z2        Z3        Z4        Z5        Z6        Z7        Z8
            1      6.000E+00 4.500E+00 3.500E+00 0.000E+00 3.000E-01 3.500E+00 4.500E+00 6.000E+00



 
 SOLVING FOR HEAD 

 NO OUTPUT CONTROL FOR STRESS PERIOD   20   TIME STEP   1
 
 SOLVING FOR HEAD 

 NO OUTPUT CONTROL FOR STRESS PERIOD   20   TIME STEP   2
 
 SOLVING FOR HEAD 

 NO OUTPUT CONTROL FOR STRESS PERIOD   20   TIME STEP   3
 
 SOLVING FOR HEAD 

 NO OUTPUT CONTROL FOR STRESS PERIOD   20   TIME STEP   4
 
 SOLVING FOR HEAD 

 NO OUTPUT CONTROL FOR STRESS PERIOD   20   TIME STEP   5
 
 SOLVING FOR HEAD 

 NO OUTPUT CONTROL FOR STRESS PERIOD   20   TIME STEP   6
 
 SOLVING FOR HEAD 

 NO OUTPUT CONTROL FOR STRESS PERIOD   20   TIME STEP   7
 
 SOLVING FOR HEAD 

 NO OUTPUT CONTROL FOR STRESS PERIOD   20   TIME STEP   8
 
 SOLVING FOR HEAD 

 NO OUTPUT CONTROL FOR STRESS PERIOD   20   TIME STEP   9
 
 SOLVING FOR HEAD 

 NO OUTPUT CONTROL FOR STRESS PERIOD   20   TIME STEP  10
 
 SOLVING FOR HEAD 

 NO OUTPUT CONTROL FOR STRESS PERIOD   20   TIME STEP  11
 
 SOLVING FOR HEAD 

 NO OUTPUT CONTROL FOR STRESS PERIOD   20   TIME STEP  12
 
 SOLVING FOR HEAD 

 NO OUTPUT CONTROL FOR STRESS PERIOD   20   TIME STEP  13
 
 SOLVING FOR HEAD 

 NO OUTPUT CONTROL FOR STRESS PERIOD   20   TIME STEP  14
 
 SOLVING FOR HEAD 

 NO OUTPUT CONTROL FOR STRESS PERIOD   20   TIME STEP  15
 
 SOLVING FOR HEAD 

 NO OUTPUT CONTROL FOR STRESS PERIOD   20   TIME STEP  16
 
 SOLVING FOR HEAD 

 NO OUTPUT CONTROL FOR STRESS PERIOD   20   TIME STEP  17
 
 SOLVING FOR HEAD 

 NO OUTPUT CONTROL FOR STRESS PERIOD   20   TIME STEP  18
 
 SOLVING FOR HEAD 

 NO OUTPUT CONTROL FOR STRESS PERIOD   20   TIME STEP  19
 
 SOLVING FOR HEAD 

 NO OUTPUT CONTROL FOR STRESS PERIOD   20   TIME STEP  20
 
 SOLVING FOR HEAD 

 NO OUTPUT CONTROL FOR STRESS PERIOD   20   TIME STEP  21
 
 SOLVING FOR HEAD 

 NO OUTPUT CONTROL FOR STRESS PERIOD   20   TIME STEP  22
 
 SOLVING FOR HEAD 

 NO OUTPUT CONTROL FOR STRESS PERIOD   20   TIME STEP  23
 
 SOLVING FOR HEAD 

 NO OUTPUT CONTROL FOR STRESS PERIOD   20   TIME STEP  24
 
 SOLVING FOR HEAD 

 NO OUTPUT CONTROL FOR STRESS PERIOD   20   TIME STEP  25
 
 SOLVING FOR HEAD 

 NO OUTPUT CONTROL FOR STRESS PERIOD   20   TIME STEP  26
 
 SOLVING FOR HEAD 

 NO OUTPUT CONTROL FOR STRESS PERIOD   20   TIME STEP  27
 
 SOLVING FOR HEAD 

 NO OUTPUT CONTROL FOR STRESS PERIOD   20   TIME STEP  28
 
 SOLVING FOR HEAD 

 NO OUTPUT CONTROL FOR STRESS PERIOD   20   TIME STEP  29
 
 SOLVING FOR HEAD 

 OUTPUT CONTROL FOR STRESS PERIOD   20   TIME STEP  30
    PRINT HEAD FOR ALL LAYERS
    PRINT BUDGET
    SAVE BUDGET

  HEAD DEP BOUNDS   PERIOD   20   STEP  30
 BOUNDARY      1   LAYER   1   ROW     1   COL   100   RATE   -4.534070E-02
 BOUNDARY      2   LAYER   1   ROW     2   COL   100   RATE   -4.553474E-02
 BOUNDARY      3   LAYER   1   ROW     3   COL   100   RATE   -4.574290E-02
 BOUNDARY      4   LAYER   1   ROW     4   COL   100   RATE   -4.019399E-02
 BOUNDARY      5   LAYER   1   ROW     5   COL   100   RATE   -4.574290E-02
 BOUNDARY      6   LAYER   1   ROW     6   COL   100   RATE   -4.553474E-02
 BOUNDARY      7   LAYER   1   ROW     7   COL   100   RATE   -4.534070E-02



 STREAM LISTING     PERIOD     20   STEP       30

 LAYER ROW COL. STREAM  RCH.   FLOW INTO    STREAM     FLOW OUT OF   OVRLND.    DIRECT     STREAM      STREAM      STREAM     STREAM  STREAMBED   FLOW TO   CHNG. UNSAT. 
                SEG.NO.  NO.   STRM. RCH.    LOSS       STRM. RCH.   RUNOFF     PRECIP       ET         HEAD        DEPTH      WIDTH  CONDCTNC.   WAT. TAB.   STORAGE

   1    4    1     1     1    3.5560E+01  8.8938E-03   3.5551E+01  0.000E+00  0.000E+00  0.000E+00  1.44127E+02  4.277E+00  9.106E+00  1.862E-03  9.080E-03 -1.857E-04
   1    4    2     1     2    3.5551E+01  8.8917E-03   3.5542E+01  0.000E+00  0.000E+00  0.000E+00  1.43826E+02  4.276E+00  9.104E+00  1.862E-03  9.077E-03 -1.857E-04
   1    4    3     1     3    3.5542E+01  8.8897E-03   3.5533E+01  0.000E+00  0.000E+00  0.000E+00  1.43526E+02  4.276E+00  9.103E+00  1.861E-03  9.075E-03 -1.856E-04
   1    4    4     1     4    3.5533E+01  8.8877E-03   3.5524E+01  0.000E+00  0.000E+00  0.000E+00  1.43225E+02  4.275E+00  9.101E+00  1.861E-03  9.073E-03 -1.855E-04
   1    4    5     1     5    3.5524E+01  8.8857E-03   3.5516E+01  0.000E+00  0.000E+00  0.000E+00  1.42925E+02  4.275E+00  9.099E+00  1.861E-03  9.071E-03 -1.853E-04
   1    4    6     1     6    3.5516E+01  8.8837E-03   3.5507E+01  0.000E+00  0.000E+00  0.000E+00  1.42624E+02  4.274E+00  9.098E+00  1.861E-03  9.069E-03 -1.851E-04
   1    4    7     1     7    3.5507E+01  8.8816E-03   3.5498E+01  0.000E+00  0.000E+00  0.000E+00  1.42324E+02  4.274E+00  9.096E+00  1.860E-03  9.066E-03 -1.848E-04
   1    4    8     1     8    3.5498E+01  8.8796E-03   3.5489E+01  0.000E+00  0.000E+00  0.000E+00  1.42024E+02  4.274E+00  9.094E+00  1.860E-03  9.064E-03 -1.845E-04
   1    4    9     1     9    3.5489E+01  8.8776E-03   3.5480E+01  0.000E+00  0.000E+00  0.000E+00  1.41723E+02  4.273E+00  9.093E+00  1.860E-03  9.062E-03 -1.841E-04
   1    4   10     1    10    3.5480E+01  8.8756E-03   3.5471E+01  0.000E+00  0.000E+00  0.000E+00  1.41423E+02  4.273E+00  9.091E+00  1.860E-03  9.059E-03 -1.837E-04
   1    4   11     1    11    3.5471E+01  8.8736E-03   3.5462E+01  0.000E+00  0.000E+00  0.000E+00  1.41122E+02  4.272E+00  9.089E+00  1.859E-03  9.057E-03 -1.832E-04
   1    4   12     1    12    3.5462E+01  8.8716E-03   3.5453E+01  0.000E+00  0.000E+00  0.000E+00  1.40822E+02  4.272E+00  9.088E+00  1.859E-03  9.054E-03 -1.827E-04
   1    4   13     1    13    3.5453E+01  8.8695E-03   3.5445E+01  0.000E+00  0.000E+00  0.000E+00  1.40522E+02  4.272E+00  9.086E+00  1.859E-03  9.052E-03 -1.821E-04
   1    4   14     1    14    3.5445E+01  8.8675E-03   3.5436E+01  0.000E+00  0.000E+00  0.000E+00  1.40221E+02  4.271E+00  9.084E+00  1.859E-03  9.049E-03 -1.814E-04
   1    4   15     1    15    3.5436E+01  8.8655E-03   3.5427E+01  0.000E+00  0.000E+00  0.000E+00  1.39921E+02  4.271E+00  9.083E+00  1.858E-03  9.046E-03 -1.807E-04
   1    4   16     1    16    3.5427E+01  8.8635E-03   3.5418E+01  0.000E+00  0.000E+00  0.000E+00  1.39620E+02  4.270E+00  9.081E+00  1.858E-03  9.043E-03 -1.800E-04
   1    4   17     1    17    3.5418E+01  8.8615E-03   3.5409E+01  0.000E+00  0.000E+00  0.000E+00  1.39320E+02  4.270E+00  9.079E+00  1.858E-03  9.041E-03 -1.792E-04
   1    4   18     1    18    3.5409E+01  8.8595E-03   3.5400E+01  0.000E+00  0.000E+00  0.000E+00  1.39019E+02  4.269E+00  9.078E+00  1.858E-03  9.038E-03 -1.784E-04
   1    4   19     1    19    3.5400E+01  8.8574E-03   3.5391E+01  0.000E+00  0.000E+00  0.000E+00  1.38719E+02  4.269E+00  9.076E+00  1.857E-03  9.035E-03 -1.775E-04
   1    4   20     1    20    3.5391E+01  8.8554E-03   3.5383E+01  0.000E+00  0.000E+00  0.000E+00  1.38419E+02  4.269E+00  9.074E+00  1.857E-03  9.032E-03 -1.766E-04
   1    4   21     1    21    3.5383E+01  8.8534E-03   3.5374E+01  0.000E+00  0.000E+00  0.000E+00  1.38118E+02  4.268E+00  9.073E+00  1.857E-03  9.029E-03 -1.757E-04
   1    4   22     1    22    3.5374E+01  8.8514E-03   3.5365E+01  0.000E+00  0.000E+00  0.000E+00  1.37818E+02  4.268E+00  9.071E+00  1.857E-03  9.026E-03 -1.746E-04
   1    4   23     1    23    3.5365E+01  8.8494E-03   3.5356E+01  0.000E+00  0.000E+00  0.000E+00  1.37517E+02  4.267E+00  9.069E+00  1.856E-03  9.023E-03 -1.736E-04
   1    4   24     1    24    3.5356E+01  8.8474E-03   3.5347E+01  0.000E+00  0.000E+00  0.000E+00  1.37217E+02  4.267E+00  9.068E+00  1.856E-03  9.020E-03 -1.725E-04
   1    4   25     1    25    3.5347E+01  8.8454E-03   3.5338E+01  0.000E+00  0.000E+00  0.000E+00  1.36917E+02  4.267E+00  9.066E+00  1.856E-03  9.017E-03 -1.714E-04
   1    4   26     1    26    3.5338E+01  8.8433E-03   3.5329E+01  0.000E+00  0.000E+00  0.000E+00  1.36616E+02  4.266E+00  9.064E+00  1.855E-03  9.014E-03 -1.702E-04
   1    4   27     1    27    3.5329E+01  8.8413E-03   3.5321E+01  0.000E+00  0.000E+00  0.000E+00  1.36316E+02  4.266E+00  9.063E+00  1.855E-03  9.010E-03 -1.690E-04
   1    4   28     1    28    3.5321E+01  8.8393E-03   3.5312E+01  0.000E+00  0.000E+00  0.000E+00  1.36015E+02  4.265E+00  9.061E+00  1.855E-03  9.007E-03 -1.677E-04
   1    4   29     1    29    3.5312E+01  8.8373E-03   3.5303E+01  0.000E+00  0.000E+00  0.000E+00  1.35715E+02  4.265E+00  9.059E+00  1.855E-03  9.004E-03 -1.664E-04
   1    4   30     1    30    3.5303E+01  8.8353E-03   3.5294E+01  0.000E+00  0.000E+00  0.000E+00  1.35414E+02  4.264E+00  9.058E+00  1.854E-03  9.000E-03 -1.651E-04
   1    4   31     1    31    3.5294E+01  8.8333E-03   3.5285E+01  0.000E+00  0.000E+00  0.000E+00  1.35114E+02  4.264E+00  9.056E+00  1.854E-03  8.997E-03 -1.637E-04
   1    4   32     1    32    3.5285E+01  8.8313E-03   3.5276E+01  0.000E+00  0.000E+00  0.000E+00  1.34814E+02  4.264E+00  9.054E+00  1.854E-03  8.994E-03 -1.622E-04
   1    4   33     1    33    3.5276E+01  8.8293E-03   3.5268E+01  0.000E+00  0.000E+00  0.000E+00  1.34513E+02  4.263E+00  9.053E+00  1.854E-03  8.990E-03 -1.608E-04
   1    4   34     1    34    3.5268E+01  8.8272E-03   3.5259E+01  0.000E+00  0.000E+00  0.000E+00  1.34213E+02  4.263E+00  9.051E+00  1.853E-03  8.986E-03 -1.593E-04
   1    4   35     1    35    3.5259E+01  8.8252E-03   3.5250E+01  0.000E+00  0.000E+00  0.000E+00  1.33912E+02  4.262E+00  9.050E+00  1.853E-03  8.983E-03 -1.577E-04
   1    4   36     1    36    3.5250E+01  8.8232E-03   3.5241E+01  0.000E+00  0.000E+00  0.000E+00  1.33612E+02  4.262E+00  9.048E+00  1.853E-03  8.979E-03 -1.561E-04
   1    4   37     1    37    3.5241E+01  8.8212E-03   3.5232E+01  0.000E+00  0.000E+00  0.000E+00  1.33312E+02  4.262E+00  9.046E+00  1.853E-03  8.976E-03 -1.545E-04
   1    4   38     1    38    3.5232E+01  8.8192E-03   3.5223E+01  0.000E+00  0.000E+00  0.000E+00  1.33011E+02  4.261E+00  9.045E+00  1.852E-03  8.972E-03 -1.528E-04
   1    4   39     1    39    3.5223E+01  8.8172E-03   3.5215E+01  0.000E+00  0.000E+00  0.000E+00  1.32711E+02  4.261E+00  9.043E+00  1.852E-03  8.968E-03 -1.511E-04
   1    4   40     1    40    3.5215E+01  8.8152E-03   3.5206E+01  0.000E+00  0.000E+00  0.000E+00  1.32410E+02  4.260E+00  9.041E+00  1.852E-03  8.965E-03 -1.494E-04
   1    4   41     1    41    3.5206E+01  8.8132E-03   3.5197E+01  0.000E+00  0.000E+00  0.000E+00  1.32110E+02  4.260E+00  9.040E+00  1.852E-03  8.961E-03 -1.477E-04
   1    4   42     1    42    3.5197E+01  8.8112E-03   3.5188E+01  0.000E+00  0.000E+00  0.000E+00  1.31809E+02  4.259E+00  9.038E+00  1.851E-03  8.957E-03 -1.459E-04
   1    4   43     1    43    3.5188E+01  8.8092E-03   3.5179E+01  0.000E+00  0.000E+00  0.000E+00  1.31509E+02  4.259E+00  9.036E+00  1.851E-03  8.953E-03 -1.441E-04
   1    4   44     1    44    3.5179E+01  8.8072E-03   3.5171E+01  0.000E+00  0.000E+00  0.000E+00  1.31209E+02  4.259E+00  9.035E+00  1.851E-03  8.949E-03 -1.423E-04
   1    4   45     1    45    3.5171E+01  8.8052E-03   3.5162E+01  0.000E+00  0.000E+00  0.000E+00  1.30908E+02  4.258E+00  9.033E+00  1.851E-03  8.946E-03 -1.404E-04
   1    4   46     1    46    3.5162E+01  8.8031E-03   3.5153E+01  0.000E+00  0.000E+00  0.000E+00  1.30608E+02  4.258E+00  9.031E+00  1.850E-03  8.942E-03 -1.386E-04
   1    4   47     1    47    3.5153E+01  8.8011E-03   3.5144E+01  0.000E+00  0.000E+00  0.000E+00  1.30307E+02  4.257E+00  9.030E+00  1.850E-03  8.938E-03 -1.367E-04
   1    4   48     1    48    3.5144E+01  8.7991E-03   3.5135E+01  0.000E+00  0.000E+00  0.000E+00  1.30007E+02  4.257E+00  9.028E+00  1.850E-03  8.934E-03 -1.348E-04
   1    4   49     1    49    3.5135E+01  8.7971E-03   3.5127E+01  0.000E+00  0.000E+00  0.000E+00  1.29707E+02  4.257E+00  9.026E+00  1.849E-03  8.930E-03 -1.329E-04
   1    4   50     1    50    3.5127E+01  8.7951E-03   3.5118E+01  0.000E+00  0.000E+00  0.000E+00  1.29406E+02  4.256E+00  9.025E+00  1.849E-03  8.926E-03 -1.310E-04
   1    4   51     1    51    3.5118E+01  8.7931E-03   3.5109E+01  0.000E+00  0.000E+00  0.000E+00  1.29106E+02  4.256E+00  9.023E+00  1.849E-03  8.922E-03 -1.291E-04
   1    4   52     1    52    3.5109E+01  8.7911E-03   3.5100E+01  0.000E+00  0.000E+00  0.000E+00  1.28805E+02  4.255E+00  9.021E+00  1.849E-03  8.918E-03 -1.272E-04
   1    4   53     1    53    3.5100E+01  8.7891E-03   3.5091E+01  0.000E+00  0.000E+00  0.000E+00  1.28505E+02  4.255E+00  9.020E+00  1.848E-03  8.914E-03 -1.253E-04
   1    4   54     1    54    3.5091E+01  8.7871E-03   3.5083E+01  0.000E+00  0.000E+00  0.000E+00  1.28204E+02  4.254E+00  9.018E+00  1.848E-03  8.911E-03 -1.234E-04
   1    4   55     1    55    3.5083E+01  8.7851E-03   3.5074E+01  0.000E+00  0.000E+00  0.000E+00  1.27904E+02  4.254E+00  9.016E+00  1.848E-03  8.907E-03 -1.216E-04
   1    4   56     1    56    3.5074E+01  8.7831E-03   3.5065E+01  0.000E+00  0.000E+00  0.000E+00  1.27604E+02  4.254E+00  9.015E+00  1.848E-03  8.903E-03 -1.197E-04
   1    4   57     1    57    3.5065E+01  8.7811E-03   3.5056E+01  0.000E+00  0.000E+00  0.000E+00  1.27303E+02  4.253E+00  9.013E+00  1.847E-03  8.899E-03 -1.179E-04
   1    4   58     1    58    3.5056E+01  8.7791E-03   3.5047E+01  0.000E+00  0.000E+00  0.000E+00  1.27003E+02  4.253E+00  9.011E+00  1.847E-03  8.895E-03 -1.161E-04
   1    4   59     1    59    3.5047E+01  8.7771E-03   3.5039E+01  0.000E+00  0.000E+00  0.000E+00  1.26702E+02  4.252E+00  9.010E+00  1.847E-03  8.891E-03 -1.144E-04
   1    4   60     1    60    3.5039E+01  8.7751E-03   3.5030E+01  0.000E+00  0.000E+00  0.000E+00  1.26402E+02  4.252E+00  9.008E+00  1.847E-03  8.888E-03 -1.126E-04
   1    4   61     1    61    3.5030E+01  8.7731E-03   3.5021E+01  0.000E+00  0.000E+00  0.000E+00  1.26102E+02  4.252E+00  9.006E+00  1.846E-03  8.884E-03 -1.109E-04
   1    4   62     1    62    3.5021E+01  8.7711E-03   3.5012E+01  0.000E+00  0.000E+00  0.000E+00  1.25801E+02  4.251E+00  9.005E+00  1.846E-03  8.880E-03 -1.093E-04
   1    4   63     1    63    3.5012E+01  8.7691E-03   3.5004E+01  0.000E+00  0.000E+00  0.000E+00  1.25501E+02  4.251E+00  9.003E+00  1.846E-03  8.877E-03 -1.077E-04
   1    4   64     1    64    3.5004E+01  8.7671E-03   3.4995E+01  0.000E+00  0.000E+00  0.000E+00  1.25200E+02  4.250E+00  9.001E+00  1.846E-03  8.873E-03 -1.061E-04
   1    4   65     1    65    3.4995E+01  8.7651E-03   3.4986E+01  0.000E+00  0.000E+00  0.000E+00  1.24900E+02  4.250E+00  9.000E+00  1.845E-03  8.870E-03 -1.045E-04
   1    4   66     1    66    3.4986E+01  8.7631E-03   3.4977E+01  0.000E+00  0.000E+00  0.000E+00  1.24600E+02  4.250E+00  8.998E+00  1.845E-03  8.866E-03 -1.030E-04
   1    4   67     1    67    3.4977E+01  8.7611E-03   3.4969E+01  0.000E+00  0.000E+00  0.000E+00  1.24299E+02  4.249E+00  8.996E+00  1.845E-03  8.863E-03 -1.016E-04
   1    4   68     1    68    3.4969E+01  8.7591E-03   3.4960E+01  0.000E+00  0.000E+00  0.000E+00  1.23999E+02  4.249E+00  8.995E+00  1.845E-03  8.859E-03 -1.002E-04
   1    4   69     1    69    3.4960E+01  8.7571E-03   3.4951E+01  0.000E+00  0.000E+00  0.000E+00  1.23698E+02  4.248E+00  8.993E+00  1.844E-03  8.856E-03 -9.878E-05
   1    4   70     1    70    3.4951E+01  8.7551E-03   3.4942E+01  0.000E+00  0.000E+00  0.000E+00  1.23398E+02  4.248E+00  8.991E+00  1.844E-03  8.853E-03 -9.741E-05
   1    4   71     1    71    3.4942E+01  8.7531E-03   3.4934E+01  0.000E+00  0.000E+00  0.000E+00  1.23097E+02  4.247E+00  8.990E+00  1.844E-03  8.849E-03 -9.607E-05
   1    4   72     1    72    3.4934E+01  8.7511E-03   3.4925E+01  0.000E+00  0.000E+00  0.000E+00  1.22797E+02  4.247E+00  8.988E+00  1.843E-03  8.846E-03 -9.472E-05
   1    4   73     1    73    3.4925E+01  8.7491E-03   3.4916E+01  0.000E+00  0.000E+00  0.000E+00  1.22497E+02  4.247E+00  8.986E+00  1.843E-03  8.842E-03 -9.338E-05
   1    4   74     1    74    3.4916E+01  8.7471E-03   3.4907E+01  0.000E+00  0.000E+00  0.000E+00  1.22196E+02  4.246E+00  8.985E+00  1.843E-03  8.839E-03 -9.200E-05
   1    4   75     1    75    3.4907E+01  8.7451E-03   3.4899E+01  0.000E+00  0.000E+00  0.000E+00  1.21896E+02  4.246E+00  8.983E+00  1.843E-03  8.836E-03 -9.059E-05
   1    4   76     1    76    3.4899E+01  8.7431E-03   3.4890E+01  0.000E+00  0.000E+00  0.000E+00  1.21595E+02  4.245E+00  8.981E+00  1.842E-03  8.832E-03 -8.910E-05
   1    4   77     1    77    3.4890E+01  8.7411E-03   3.4881E+01  0.000E+00  0.000E+00  0.000E+00  1.21295E+02  4.245E+00  8.980E+00  1.842E-03  8.829E-03 -8.752E-05
   1    4   78     1    78    3.4881E+01  8.7391E-03   3.4872E+01  0.000E+00  0.000E+00  0.000E+00  1.20995E+02  4.245E+00  8.978E+00  1.842E-03  8.825E-03 -8.580E-05
   1    4   79     1    79    3.4872E+01  8.7371E-03   3.4864E+01  0.000E+00  0.000E+00  0.000E+00  1.20694E+02  4.244E+00  8.976E+00  1.842E-03  8.821E-03 -8.392E-05
   1    4   80     1    80    3.4864E+01  8.7351E-03   3.4855E+01  0.000E+00  0.000E+00  0.000E+00  1.20394E+02  4.244E+00  8.975E+00  1.841E-03  8.817E-03 -8.184E-05
   1    4   81     1    81    3.4855E+01  8.7331E-03   3.4846E+01  0.000E+00  0.000E+00  0.000E+00  1.20093E+02  4.243E+00  8.973E+00  1.841E-03  8.813E-03 -7.950E-05
   1    4   82     1    82    3.4846E+01  8.7311E-03   3.4837E+01  0.000E+00  0.000E+00  0.000E+00  1.19793E+02  4.243E+00  8.971E+00  1.841E-03  8.808E-03 -7.687E-05
   1    4   83     1    83    3.4837E+01  8.7292E-03   3.4829E+01  0.000E+00  0.000E+00  0.000E+00  1.19492E+02  4.242E+00  8.970E+00  1.841E-03  8.803E-03 -7.390E-05
   1    4   84     1    84    3.4829E+01  8.7272E-03   3.4820E+01  0.000E+00  0.000E+00  0.000E+00  1.19192E+02  4.242E+00  8.968E+00  1.840E-03  8.798E-03 -7.055E-05
   1    4   85     1    85    3.4820E+01  8.7252E-03   3.4811E+01  0.000E+00  0.000E+00  0.000E+00  1.18892E+02  4.242E+00  8.966E+00  1.840E-03  8.792E-03 -6.678E-05
   1    4   86     1    86    3.4811E+01  8.7232E-03   3.4802E+01  0.000E+00  0.000E+00  0.000E+00  1.18591E+02  4.241E+00  8.965E+00  1.840E-03  8.786E-03 -6.256E-05
   1    4   87     1    87    3.4802E+01  8.7212E-03   3.4794E+01  0.000E+00  0.000E+00  0.000E+00  1.18291E+02  4.241E+00  8.963E+00  1.840E-03  8.779E-03 -5.788E-05
   1    4   88     1    88    3.4794E+01  8.7192E-03   3.4785E+01  0.000E+00  0.000E+00  0.000E+00  1.17990E+02  4.240E+00  8.962E+00  1.839E-03  8.772E-03 -5.276E-05
   1    4   89     1    89    3.4785E+01  8.7172E-03   3.4776E+01  0.000E+00  0.000E+00  0.000E+00  1.17690E+02  4.240E+00  8.960E+00  1.839E-03  8.764E-03 -4.723E-05
   1    4   90     1    90    3.4776E+01  8.7152E-03   3.4768E+01  0.000E+00  0.000E+00  0.000E+00  1.17390E+02  4.240E+00  8.958E+00  1.839E-03  8.757E-03 -4.137E-05
   1    4   91     1    91    3.4768E+01  8.7132E-03   3.4759E+01  0.000E+00  0.000E+00  0.000E+00  1.17089E+02  4.239E+00  8.957E+00  1.839E-03  8.749E-03 -3.530E-05
   1    4   92     1    92    3.4759E+01  8.7112E-03   3.4750E+01  0.000E+00  0.000E+00  0.000E+00  1.16789E+02  4.239E+00  8.955E+00  1.838E-03  8.740E-03 -2.917E-05
   1    4   93     1    93    3.4750E+01  8.7092E-03   3.4741E+01  0.000E+00  0.000E+00  0.000E+00  1.16488E+02  4.238E+00  8.953E+00  1.838E-03  8.732E-03 -2.319E-05
   1    4   94     1    94    3.4741E+01  8.7072E-03   3.4733E+01  0.000E+00  0.000E+00  0.000E+00  1.16188E+02  4.238E+00  8.952E+00  1.838E-03  8.725E-03 -1.756E-05
   1    4   95     1    95    3.4733E+01  8.7053E-03   3.4724E+01  0.000E+00  0.000E+00  0.000E+00  1.15887E+02  4.237E+00  8.950E+00  1.838E-03  8.718E-03 -1.253E-05
   1    4   96     1    96    3.4724E+01  8.7033E-03   3.4715E+01  0.000E+00  0.000E+00  0.000E+00  1.15587E+02  4.237E+00  8.948E+00  1.837E-03  8.712E-03 -8.290E-06
   1    4   97     1    97    3.4715E+01  8.7013E-03   3.4707E+01  0.000E+00  0.000E+00  0.000E+00  1.15287E+02  4.237E+00  8.947E+00  1.837E-03  8.706E-03 -4.982E-06
   1    4   98     1    98    3.4707E+01  8.6993E-03   3.4698E+01  0.000E+00  0.000E+00  0.000E+00  1.14986E+02  4.236E+00  8.945E+00  1.837E-03  8.702E-03 -2.624E-06
   1    4   99     1    99    3.4698E+01  8.6973E-03   3.4689E+01  0.000E+00  0.000E+00  0.000E+00  1.14686E+02  4.236E+00  8.943E+00  1.836E-03  8.698E-03 -1.076E-06
   1    4  100     1   100    3.4689E+01  8.6953E-03   3.4681E+01  0.000E+00  0.000E+00  0.000E+00  1.14385E+02  4.235E+00  8.942E+00  1.836E-03  0.000E+00  0.000E+00



1
  VOLUMETRIC BUDGET FOR UNSATURATED ZONE BENEATH STREAMS AT END OF TIME STEP  30 STRESS PERIOD  20
  ------------------------------------------------------------------------------------------------

    CUMULATIVE VOLUMES             L**3    RATES FOR THIS TIME STEP         L**3/T
    ------------------                     ------------------------


          STREAM LOSS =     25252174.0000            STREAM LOSS =            0.8794
    CHANGE IN STORAGE =       959166.6875      CHANGE IN STORAGE =       -1.2226E-02
       RECHARGE TO GW =     24291890.0000         RECHARGE TO GW =            0.8917

             TOTAL IN =     25252174.0000               TOTAL IN =            0.8917

            TOTAL OUT =     25251056.0000              TOTAL OUT =            0.8917

             IN - OUT =         1118.0000               IN - OUT =        1.0151E-07

  PERCENT DISCREPANCY =            0.00      PERCENT DISCREPANCY =             0.00



1
              HEAD IN LAYER   1 AT END OF TIME STEP  30 IN STRESS PERIOD   20
  ---------------------------------------------------------------------------

          1      2      3      4      5      6      7      8      9     10
         11     12     13     14     15     16     17     18     19     20
         21     22     23     24     25     26     27     28     29     30
         31     32     33     34     35     36     37     38     39     40
         41     42     43     44     45     46     47     48     49     50
         51     52     53     54     55     56     57     58     59     60
         61     62     63     64     65     66     67     68     69     70
         71     72     73     74     75     76     77     78     79     80
         81     82     83     84     85     86     87     88     89     90
         91     92     93     94     95     96     97     98     99    100
 .........................................................................
   1   114.0  114.0  114.0  114.0  114.0  114.0  114.0  114.0  114.0  114.0
       113.9  113.9  113.9  113.9  113.9  113.8  113.8  113.8  113.8  113.7
       113.7  113.7  113.6  113.6  113.5  113.5  113.4  113.4  113.3  113.3
       113.2  113.1  113.0  112.9  112.9  112.8  112.7  112.6  112.4  112.3
       112.2  112.1  111.9  111.8  111.6  111.4  111.3  111.1  110.9  110.7
       110.4  110.2  110.0  109.7  109.5  109.2  108.9  108.6  108.3  107.9
       107.6  107.2  106.8  106.4  106.0  105.6  105.2  104.7  104.2  103.7
       103.2  102.7  102.1  101.5  100.9  100.3   99.6   99.0   98.3   97.5
        96.8   96.0   95.2   94.4   93.5   92.6   91.7   90.7   89.7   88.6
        87.5   86.4   85.2   83.9   82.6   81.2   79.8   78.3   76.7   75.0
   2   114.0  114.0  114.0  114.0  114.0  114.0  114.0  114.0  114.0  114.0
       113.9  113.9  113.9  113.9  113.9  113.9  113.8  113.8  113.8  113.7
       113.7  113.7  113.6  113.6  113.5  113.5  113.4  113.4  113.3  113.3
       113.2  113.1  113.0  113.0  112.9  112.8  112.7  112.6  112.4  112.3
       112.2  112.1  111.9  111.8  111.6  111.4  111.3  111.1  110.9  110.7
       110.4  110.2  110.0  109.7  109.5  109.2  108.9  108.6  108.3  107.9
       107.6  107.2  106.8  106.5  106.0  105.6  105.2  104.7  104.2  103.7
       103.2  102.7  102.1  101.5  100.9  100.3   99.6   99.0   98.3   97.6
        96.8   96.0   95.2   94.4   93.5   92.6   91.7   90.7   89.7   88.6
        87.5   86.4   85.2   83.9   82.6   81.2   79.8   78.3   76.7   75.0
   3   114.0  114.0  114.0  114.0  114.0  114.0  114.0  114.0  114.0  114.0
       114.0  113.9  113.9  113.9  113.9  113.9  113.8  113.8  113.8  113.8
       113.7  113.7  113.6  113.6  113.6  113.5  113.5  113.4  113.3  113.3
       113.2  113.1  113.1  113.0  112.9  112.8  112.7  112.6  112.5  112.3
       112.2  112.1  111.9  111.8  111.6  111.5  111.3  111.1  110.9  110.7
       110.5  110.2  110.0  109.7  109.5  109.2  108.9  108.6  108.3  108.0
       107.6  107.2  106.9  106.5  106.1  105.6  105.2  104.7  104.2  103.7
       103.2  102.7  102.1  101.5  100.9  100.3   99.7   99.0   98.3   97.6
        96.8   96.0   95.2   94.4   93.5   92.6   91.7   90.7   89.7   88.6
        87.5   86.4   85.2   83.9   82.6   81.3   79.8   78.3   76.7   75.0
   4   114.0  114.0  114.0  114.0  114.0  114.0  114.0  114.0  114.0  114.0
       114.0  114.0  113.9  113.9  113.9  113.9  113.9  113.8  113.8  113.8
       113.7  113.7  113.7  113.6  113.6  113.5  113.5  113.4  113.4  113.3
       113.2  113.1  113.1  113.0  112.9  112.8  112.7  112.6  112.5  112.4
       112.2  112.1  111.9  111.8  111.6  111.5  111.3  111.1  110.9  110.7
       110.5  110.2  110.0  109.8  109.5  109.2  108.9  108.6  108.3  108.0
       107.6  107.3  106.9  106.5  106.1  105.6  105.2  104.7  104.3  103.8
       103.2  102.7  102.1  101.6  101.0  100.3   99.7   99.0   98.3   97.6
        96.8   96.1   95.3   94.4   93.5   92.6   91.7   90.7   89.7   88.7
        87.6   86.4   85.2   84.0   82.6   81.3   79.8   78.3   76.7   75.0
   5   114.0  114.0  114.0  114.0  114.0  114.0  114.0  114.0  114.0  114.0
       114.0  113.9  113.9  113.9  113.9  113.9  113.8  113.8  113.8  113.8
       113.7  113.7  113.6  113.6  113.6  113.5  113.5  113.4  113.3  113.3
       113.2  113.1  113.1  113.0  112.9  112.8  112.7  112.6  112.5  112.3
       112.2  112.1  111.9  111.8  111.6  111.5  111.3  111.1  110.9  110.7
       110.5  110.2  110.0  109.7  109.5  109.2  108.9  108.6  108.3  108.0
       107.6  107.2  106.9  106.5  106.1  105.6  105.2  104.7  104.2  103.7
       103.2  102.7  102.1  101.5  100.9  100.3   99.7   99.0   98.3   97.6
        96.8   96.0   95.2   94.4   93.5   92.6   91.7   90.7   89.7   88.6
        87.5   86.4   85.2   83.9   82.6   81.3   79.8   78.3   76.7   75.0
   6   114.0  114.0  114.0  114.0  114.0  114.0  114.0  114.0  114.0  114.0
       113.9  113.9  113.9  113.9  113.9  113.9  113.8  113.8  113.8  113.7
       113.7  113.7  113.6  113.6  113.5  113.5  113.4  113.4  113.3  113.3
       113.2  113.1  113.0  113.0  112.9  112.8  112.7  112.6  112.4  112.3
       112.2  112.1  111.9  111.8  111.6  111.4  111.3  111.1  110.9  110.7
       110.4  110.2  110.0  109.7  109.5  109.2  108.9  108.6  108.3  107.9
       107.6  107.2  106.8  106.5  106.0  105.6  105.2  104.7  104.2  103.7
       103.2  102.7  102.1  101.5  100.9  100.3   99.6   99.0   98.3   97.6
        96.8   96.0   95.2   94.4   93.5   92.6   91.7   90.7   89.7   88.6
        87.5   86.4   85.2   83.9   82.6   81.2   79.8   78.3   76.7   75.0
   7   114.0  114.0  114.0  114.0  114.0  114.0  114.0  114.0  114.0  114.0
       113.9  113.9  113.9  113.9  113.9  113.8  113.8  113.8  113.8  113.7
       113.7  113.7  113.6  113.6  113.5  113.5  113.4  113.4  113.3  113.3
       113.2  113.1  113.0  112.9  112.9  112.8  112.7  112.6  112.4  112.3
       112.2  112.1  111.9  111.8  111.6  111.4  111.3  111.1  110.9  110.7
       110.4  110.2  110.0  109.7  109.5  109.2  108.9  108.6  108.3  107.9
       107.6  107.2  106.8  106.4  106.0  105.6  105.2  104.7  104.2  103.7
       103.2  102.7  102.1  101.5  100.9  100.3   99.6   99.0   98.3   97.5
        96.8   96.0   95.2   94.4   93.5   92.6   91.7   90.7   89.7   88.6
        87.5   86.4   85.2   83.9   82.6   81.2   79.8   78.3   76.7   75.0
1
  VOLUMETRIC BUDGET FOR ENTIRE MODEL AT END OF TIME STEP 30 IN STRESS PERIOD  20
  ------------------------------------------------------------------------------

     CUMULATIVE VOLUMES      L**3       RATES FOR THIS TIME STEP      L**3/T
     ------------------                 ------------------------

           IN:                                      IN:
           ---                                      ---
             STORAGE =    10162184.0000               STORAGE =       7.1534E-08
       CONSTANT HEAD =           0.0000         CONSTANT HEAD =           0.0000
     HEAD DEP BOUNDS =           0.0000       HEAD DEP BOUNDS =           0.0000
      STREAM LEAKAGE =    24291922.0000        STREAM LEAKAGE =           0.8917

            TOTAL IN =    34454104.0000              TOTAL IN =           0.8917

          OUT:                                     OUT:
          ----                                     ----
             STORAGE =    14824089.0000               STORAGE =           0.5782
       CONSTANT HEAD =           0.0000         CONSTANT HEAD =           0.0000
     HEAD DEP BOUNDS =    19629616.0000       HEAD DEP BOUNDS =           0.3134
      STREAM LEAKAGE =           0.0000        STREAM LEAKAGE =           0.0000

           TOTAL OUT =    34453704.0000             TOTAL OUT =           0.8916

            IN - OUT =         400.0000              IN - OUT =       4.7386E-05

 PERCENT DISCREPANCY =           0.00     PERCENT DISCREPANCY =           0.01






          TIME SUMMARY AT END OF TIME STEP  30 IN STRESS PERIOD   20
                    SECONDS     MINUTES      HOURS       DAYS        YEARS
                    -----------------------------------------------------------
   TIME STEP LENGTH 2.49961E+05  4166.0      69.434      2.8931     7.92080E-03
 STRESS PERIOD TIME 2.59200E+06  43200.      720.00      30.000     8.21355E-02
         TOTAL TIME 5.18400E+07 8.63999E+05  14400.      600.00      1.6427    
1
1
                            STRESS PERIOD NO.   21, LENGTH =   2592000.    
                            -----------------------------------------------

                              NUMBER OF TIME STEPS =    30

                               MULTIPLIER FOR DELT =     1.100

                            INITIAL TIME STEP SIZE =   15757.40    

 REUSING NON-PARAMETER GHB CELLS FROM LAST STRESS PERIOD

      7 GHB CELLS



 CLASSIFICATION & COUNT OF STREAM SEGMENTS BASED ON SOURCE OF INFLOW:

                HEADWATER     DIVERSION     RECEIVES TRIBUTARY FLOW
                ---------     ---------     -----------------------
                     1              0               0



                    INPUT DATA FOR EACH STREAM SEGMENT
 ---------------------------------------------------------------------------------------------

 SEGMENT    SEG.     INFLOW   OVERLAND   STREAM    STREAM   ICALC  OUTFLOW  DIVERSION PRIORITY
    NO.    LENGTH     RATE     RUNOFF      ET       PPT.    METH.  TO SEG.  FROM SEG.    NO.

      1  2.000E+04 1.263E+01 0.000E+00 0.000E+00 0.000E+00    2        0        0        0


         STREAMBED PROPERTIES AND STREAM DIMENSIONS

 SEGMENT     BED HYD. COND.      BED THICKNESS     ELEV.-TOP OF BED     WIDTH OF STREAM     DEPTH OF STREAM    STREAM ROUGHNESS
    No.     UPPER     LOWER     UPPER     LOWER     UPPER     LOWER     UPPER     LOWER     UPPER     LOWER   CHANNEL      BANK

     1  3.500E-07 3.500E-07                                                                                 3.000E-02 4.000E-02

  EIGHT POINT CROSS-SECTION DATA FOR SEGMENTS WITH ICALC = 2
    X VALUES X VALUES START FROM LEFT SIDE LOOKING DOWNSTREAM

     SEGMENT NO.        X1        X2        X3        X4        X5        X6        X7        X8
            1      0.000E+00 2.000E+00 4.000E+00 6.000E+00 8.000E+00 1.000E+01 1.200E+01 1.400E+01

    Z VALUES ARE RELATIVE TO STREAMBED ELEVATION

     SEGMENT NO.          Z1        Z2        Z3        Z4        Z5        Z6        Z7        Z8
            1      6.000E+00 4.500E+00 3.500E+00 0.000E+00 3.000E-01 3.500E+00 4.500E+00 6.000E+00



 
 SOLVING FOR HEAD 

 NO OUTPUT CONTROL FOR STRESS PERIOD   21   TIME STEP   1
 
 SOLVING FOR HEAD 

 NO OUTPUT CONTROL FOR STRESS PERIOD   21   TIME STEP   2
 
 SOLVING FOR HEAD 

 NO OUTPUT CONTROL FOR STRESS PERIOD   21   TIME STEP   3
 
 SOLVING FOR HEAD 

 NO OUTPUT CONTROL FOR STRESS PERIOD   21   TIME STEP   4
 
 SOLVING FOR HEAD 

 NO OUTPUT CONTROL FOR STRESS PERIOD   21   TIME STEP   5
 
 SOLVING FOR HEAD 

 NO OUTPUT CONTROL FOR STRESS PERIOD   21   TIME STEP   6
 
 SOLVING FOR HEAD 

 NO OUTPUT CONTROL FOR STRESS PERIOD   21   TIME STEP   7
 
 SOLVING FOR HEAD 

 NO OUTPUT CONTROL FOR STRESS PERIOD   21   TIME STEP   8
 
 SOLVING FOR HEAD 

 NO OUTPUT CONTROL FOR STRESS PERIOD   21   TIME STEP   9
 
 SOLVING FOR HEAD 

 NO OUTPUT CONTROL FOR STRESS PERIOD   21   TIME STEP  10
 
 SOLVING FOR HEAD 

 NO OUTPUT CONTROL FOR STRESS PERIOD   21   TIME STEP  11
 
 SOLVING FOR HEAD 

 NO OUTPUT CONTROL FOR STRESS PERIOD   21   TIME STEP  12
 
 SOLVING FOR HEAD 

 NO OUTPUT CONTROL FOR STRESS PERIOD   21   TIME STEP  13
 
 SOLVING FOR HEAD 

 NO OUTPUT CONTROL FOR STRESS PERIOD   21   TIME STEP  14
 
 SOLVING FOR HEAD 

 NO OUTPUT CONTROL FOR STRESS PERIOD   21   TIME STEP  15
 
 SOLVING FOR HEAD 

 NO OUTPUT CONTROL FOR STRESS PERIOD   21   TIME STEP  16
 
 SOLVING FOR HEAD 

 NO OUTPUT CONTROL FOR STRESS PERIOD   21   TIME STEP  17
 
 SOLVING FOR HEAD 

 NO OUTPUT CONTROL FOR STRESS PERIOD   21   TIME STEP  18
 
 SOLVING FOR HEAD 

 NO OUTPUT CONTROL FOR STRESS PERIOD   21   TIME STEP  19
 
 SOLVING FOR HEAD 

 NO OUTPUT CONTROL FOR STRESS PERIOD   21   TIME STEP  20
 
 SOLVING FOR HEAD 

 NO OUTPUT CONTROL FOR STRESS PERIOD   21   TIME STEP  21
 
 SOLVING FOR HEAD 

 NO OUTPUT CONTROL FOR STRESS PERIOD   21   TIME STEP  22
 
 SOLVING FOR HEAD 

 NO OUTPUT CONTROL FOR STRESS PERIOD   21   TIME STEP  23
 
 SOLVING FOR HEAD 

 NO OUTPUT CONTROL FOR STRESS PERIOD   21   TIME STEP  24
 
 SOLVING FOR HEAD 

 NO OUTPUT CONTROL FOR STRESS PERIOD   21   TIME STEP  25
 
 SOLVING FOR HEAD 

 NO OUTPUT CONTROL FOR STRESS PERIOD   21   TIME STEP  26
 
 SOLVING FOR HEAD 

 NO OUTPUT CONTROL FOR STRESS PERIOD   21   TIME STEP  27
 
 SOLVING FOR HEAD 

 NO OUTPUT CONTROL FOR STRESS PERIOD   21   TIME STEP  28
 
 SOLVING FOR HEAD 

 NO OUTPUT CONTROL FOR STRESS PERIOD   21   TIME STEP  29
 
 SOLVING FOR HEAD 

 NO OUTPUT CONTROL FOR STRESS PERIOD   21   TIME STEP  30
1
  VOLUMETRIC BUDGET FOR UNSATURATED ZONE BENEATH STREAMS AT END OF TIME STEP  30 STRESS PERIOD  21
  ------------------------------------------------------------------------------------------------

    CUMULATIVE VOLUMES             L**3    RATES FOR THIS TIME STEP         L**3/T
    ------------------                     ------------------------


          STREAM LOSS =     26169854.0000            STREAM LOSS =            0.3540
    CHANGE IN STORAGE =       608485.5000      CHANGE IN STORAGE =       -2.9380E-02
       RECHARGE TO GW =     25560728.0000         RECHARGE TO GW =            0.3834

             TOTAL IN =     26169854.0000               TOTAL IN =            0.3834

            TOTAL OUT =     26169214.0000              TOTAL OUT =            0.3834

             IN - OUT =          640.0000               IN - OUT =        8.9407E-08

  PERCENT DISCREPANCY =            0.00      PERCENT DISCREPANCY =             0.00



1
  VOLUMETRIC BUDGET FOR ENTIRE MODEL AT END OF TIME STEP 30 IN STRESS PERIOD  21
  ------------------------------------------------------------------------------

     CUMULATIVE VOLUMES      L**3       RATES FOR THIS TIME STEP      L**3/T
     ------------------                 ------------------------

           IN:                                      IN:
           ---                                      ---
             STORAGE =    10252344.0000               STORAGE =       4.9629E-02
       CONSTANT HEAD =           0.0000         CONSTANT HEAD =           0.0000
     HEAD DEP BOUNDS =           0.0000       HEAD DEP BOUNDS =           0.0000
      STREAM LEAKAGE =    25560764.0000        STREAM LEAKAGE =           0.3834

            TOTAL IN =    35813108.0000              TOTAL IN =           0.4330

          OUT:                                     OUT:
          ----                                     ----
             STORAGE =    15397581.0000               STORAGE =           0.1393
       CONSTANT HEAD =           0.0000         CONSTANT HEAD =           0.0000
     HEAD DEP BOUNDS =    20415144.0000       HEAD DEP BOUNDS =           0.2937
      STREAM LEAKAGE =           0.0000        STREAM LEAKAGE =           0.0000

           TOTAL OUT =    35812724.0000             TOTAL OUT =           0.4330

            IN - OUT =         384.0000              IN - OUT =       5.3644E-06

 PERCENT DISCREPANCY =           0.00     PERCENT DISCREPANCY =           0.00






          TIME SUMMARY AT END OF TIME STEP  30 IN STRESS PERIOD   21
                    SECONDS     MINUTES      HOURS       DAYS        YEARS
                    -----------------------------------------------------------
   TIME STEP LENGTH 2.49961E+05  4166.0      69.434      2.8931     7.92080E-03
 STRESS PERIOD TIME 2.59200E+06  43200.      720.00      30.000     8.21355E-02
         TOTAL TIME 5.44320E+07 9.07199E+05  15120.      630.00      1.7248    
1
1
                            STRESS PERIOD NO.   22, LENGTH =   2592000.    
                            -----------------------------------------------

                              NUMBER OF TIME STEPS =    30

                               MULTIPLIER FOR DELT =     1.100

                            INITIAL TIME STEP SIZE =   15757.40    

 REUSING NON-PARAMETER GHB CELLS FROM LAST STRESS PERIOD

      7 GHB CELLS



 CLASSIFICATION & COUNT OF STREAM SEGMENTS BASED ON SOURCE OF INFLOW:

                HEADWATER     DIVERSION     RECEIVES TRIBUTARY FLOW
                ---------     ---------     -----------------------
                     1              0               0



                    INPUT DATA FOR EACH STREAM SEGMENT
 ---------------------------------------------------------------------------------------------

 SEGMENT    SEG.     INFLOW   OVERLAND   STREAM    STREAM   ICALC  OUTFLOW  DIVERSION PRIORITY
    NO.    LENGTH     RATE     RUNOFF      ET       PPT.    METH.  TO SEG.  FROM SEG.    NO.

      1  2.000E+04 5.816E+00 0.000E+00 0.000E+00 0.000E+00    2        0        0        0


         STREAMBED PROPERTIES AND STREAM DIMENSIONS

 SEGMENT     BED HYD. COND.      BED THICKNESS     ELEV.-TOP OF BED     WIDTH OF STREAM     DEPTH OF STREAM    STREAM ROUGHNESS
    No.     UPPER     LOWER     UPPER     LOWER     UPPER     LOWER     UPPER     LOWER     UPPER     LOWER   CHANNEL      BANK

     1  3.500E-07 3.500E-07                                                                                 3.000E-02 4.000E-02

  EIGHT POINT CROSS-SECTION DATA FOR SEGMENTS WITH ICALC = 2
    X VALUES X VALUES START FROM LEFT SIDE LOOKING DOWNSTREAM

     SEGMENT NO.        X1        X2        X3        X4        X5        X6        X7        X8
            1      0.000E+00 2.000E+00 4.000E+00 6.000E+00 8.000E+00 1.000E+01 1.200E+01 1.400E+01

    Z VALUES ARE RELATIVE TO STREAMBED ELEVATION

     SEGMENT NO.          Z1        Z2        Z3        Z4        Z5        Z6        Z7        Z8
            1      6.000E+00 4.500E+00 3.500E+00 0.000E+00 3.000E-01 3.500E+00 4.500E+00 6.000E+00



 
 SOLVING FOR HEAD 

 NO OUTPUT CONTROL FOR STRESS PERIOD   22   TIME STEP   1
 
 SOLVING FOR HEAD 

 NO OUTPUT CONTROL FOR STRESS PERIOD   22   TIME STEP   2
 
 SOLVING FOR HEAD 

 NO OUTPUT CONTROL FOR STRESS PERIOD   22   TIME STEP   3
 
 SOLVING FOR HEAD 

 NO OUTPUT CONTROL FOR STRESS PERIOD   22   TIME STEP   4
 
 SOLVING FOR HEAD 

 NO OUTPUT CONTROL FOR STRESS PERIOD   22   TIME STEP   5
 
 SOLVING FOR HEAD 

 NO OUTPUT CONTROL FOR STRESS PERIOD   22   TIME STEP   6
 
 SOLVING FOR HEAD 

 NO OUTPUT CONTROL FOR STRESS PERIOD   22   TIME STEP   7
 
 SOLVING FOR HEAD 

 NO OUTPUT CONTROL FOR STRESS PERIOD   22   TIME STEP   8
 
 SOLVING FOR HEAD 

 NO OUTPUT CONTROL FOR STRESS PERIOD   22   TIME STEP   9
 
 SOLVING FOR HEAD 

 NO OUTPUT CONTROL FOR STRESS PERIOD   22   TIME STEP  10
 
 SOLVING FOR HEAD 

 NO OUTPUT CONTROL FOR STRESS PERIOD   22   TIME STEP  11
 
 SOLVING FOR HEAD 

 NO OUTPUT CONTROL FOR STRESS PERIOD   22   TIME STEP  12
 
 SOLVING FOR HEAD 

 NO OUTPUT CONTROL FOR STRESS PERIOD   22   TIME STEP  13
 
 SOLVING FOR HEAD 

 NO OUTPUT CONTROL FOR STRESS PERIOD   22   TIME STEP  14
 
 SOLVING FOR HEAD 

 NO OUTPUT CONTROL FOR STRESS PERIOD   22   TIME STEP  15
 
 SOLVING FOR HEAD 

 NO OUTPUT CONTROL FOR STRESS PERIOD   22   TIME STEP  16
 
 SOLVING FOR HEAD 

 NO OUTPUT CONTROL FOR STRESS PERIOD   22   TIME STEP  17
 
 SOLVING FOR HEAD 

 NO OUTPUT CONTROL FOR STRESS PERIOD   22   TIME STEP  18
 
 SOLVING FOR HEAD 

 NO OUTPUT CONTROL FOR STRESS PERIOD   22   TIME STEP  19
 
 SOLVING FOR HEAD 

 NO OUTPUT CONTROL FOR STRESS PERIOD   22   TIME STEP  20
 
 SOLVING FOR HEAD 

 NO OUTPUT CONTROL FOR STRESS PERIOD   22   TIME STEP  21
 
 SOLVING FOR HEAD 

 NO OUTPUT CONTROL FOR STRESS PERIOD   22   TIME STEP  22
 
 SOLVING FOR HEAD 

 NO OUTPUT CONTROL FOR STRESS PERIOD   22   TIME STEP  23
 
 SOLVING FOR HEAD 

 NO OUTPUT CONTROL FOR STRESS PERIOD   22   TIME STEP  24
 
 SOLVING FOR HEAD 

 NO OUTPUT CONTROL FOR STRESS PERIOD   22   TIME STEP  25
 
 SOLVING FOR HEAD 

 NO OUTPUT CONTROL FOR STRESS PERIOD   22   TIME STEP  26
 
 SOLVING FOR HEAD 

 NO OUTPUT CONTROL FOR STRESS PERIOD   22   TIME STEP  27
 
 SOLVING FOR HEAD 

 NO OUTPUT CONTROL FOR STRESS PERIOD   22   TIME STEP  28
 
 SOLVING FOR HEAD 

 NO OUTPUT CONTROL FOR STRESS PERIOD   22   TIME STEP  29
 
 SOLVING FOR HEAD 

 NO OUTPUT CONTROL FOR STRESS PERIOD   22   TIME STEP  30
1
  VOLUMETRIC BUDGET FOR UNSATURATED ZONE BENEATH STREAMS AT END OF TIME STEP  30 STRESS PERIOD  22
  ------------------------------------------------------------------------------------------------

    CUMULATIVE VOLUMES             L**3    RATES FOR THIS TIME STEP         L**3/T
    ------------------                     ------------------------


          STREAM LOSS =     26662804.0000            STREAM LOSS =            0.1902
    CHANGE IN STORAGE =       459018.4062      CHANGE IN STORAGE =       -1.7853E-02
       RECHARGE TO GW =     26203358.0000         RECHARGE TO GW =            0.2081

             TOTAL IN =     26662804.0000               TOTAL IN =            0.2081

            TOTAL OUT =     26662376.0000              TOTAL OUT =            0.2081

             IN - OUT =          428.0000               IN - OUT =        1.6764E-08

  PERCENT DISCREPANCY =            0.00      PERCENT DISCREPANCY =             0.00



1
  VOLUMETRIC BUDGET FOR ENTIRE MODEL AT END OF TIME STEP 30 IN STRESS PERIOD  22
  ------------------------------------------------------------------------------

     CUMULATIVE VOLUMES      L**3       RATES FOR THIS TIME STEP      L**3/T
     ------------------                 ------------------------

           IN:                                      IN:
           ---                                      ---
             STORAGE =    10517812.0000               STORAGE =           0.1146
       CONSTANT HEAD =           0.0000         CONSTANT HEAD =           0.0000
     HEAD DEP BOUNDS =           0.0000       HEAD DEP BOUNDS =           0.0000
      STREAM LEAKAGE =    26203394.0000        STREAM LEAKAGE =           0.2081

            TOTAL IN =    36721208.0000              TOTAL IN =           0.3227

          OUT:                                     OUT:
          ----                                     ----
             STORAGE =    15567876.0000               STORAGE =       4.5986E-02
       CONSTANT HEAD =           0.0000         CONSTANT HEAD =           0.0000
     HEAD DEP BOUNDS =    21152898.0000       HEAD DEP BOUNDS =           0.2766
      STREAM LEAKAGE =           0.0000        STREAM LEAKAGE =           0.0000

           TOTAL OUT =    36720776.0000             TOTAL OUT =           0.3225

            IN - OUT =         432.0000              IN - OUT =       1.1337E-04

 PERCENT DISCREPANCY =           0.00     PERCENT DISCREPANCY =           0.04






          TIME SUMMARY AT END OF TIME STEP  30 IN STRESS PERIOD   22
                    SECONDS     MINUTES      HOURS       DAYS        YEARS
                    -----------------------------------------------------------
   TIME STEP LENGTH 2.49961E+05  4166.0      69.434      2.8931     7.92080E-03
 STRESS PERIOD TIME 2.59200E+06  43200.      720.00      30.000     8.21355E-02
         TOTAL TIME 5.70240E+07 9.50399E+05  15840.      660.00      1.8070    
1
1
                            STRESS PERIOD NO.   23, LENGTH =   2592000.    
                            -----------------------------------------------

                              NUMBER OF TIME STEPS =    30

                               MULTIPLIER FOR DELT =     1.100

                            INITIAL TIME STEP SIZE =   15757.40    

 REUSING NON-PARAMETER GHB CELLS FROM LAST STRESS PERIOD

      7 GHB CELLS



 CLASSIFICATION & COUNT OF STREAM SEGMENTS BASED ON SOURCE OF INFLOW:

                HEADWATER     DIVERSION     RECEIVES TRIBUTARY FLOW
                ---------     ---------     -----------------------
                     1              0               0



                    INPUT DATA FOR EACH STREAM SEGMENT
 ---------------------------------------------------------------------------------------------

 SEGMENT    SEG.     INFLOW   OVERLAND   STREAM    STREAM   ICALC  OUTFLOW  DIVERSION PRIORITY
    NO.    LENGTH     RATE     RUNOFF      ET       PPT.    METH.  TO SEG.  FROM SEG.    NO.

      1  2.000E+04 4.296E+00 0.000E+00 0.000E+00 0.000E+00    2        0        0        0


         STREAMBED PROPERTIES AND STREAM DIMENSIONS

 SEGMENT     BED HYD. COND.      BED THICKNESS     ELEV.-TOP OF BED     WIDTH OF STREAM     DEPTH OF STREAM    STREAM ROUGHNESS
    No.     UPPER     LOWER     UPPER     LOWER     UPPER     LOWER     UPPER     LOWER     UPPER     LOWER   CHANNEL      BANK

     1  3.500E-07 3.500E-07                                                                                 3.000E-02 4.000E-02

  EIGHT POINT CROSS-SECTION DATA FOR SEGMENTS WITH ICALC = 2
    X VALUES X VALUES START FROM LEFT SIDE LOOKING DOWNSTREAM

     SEGMENT NO.        X1        X2        X3        X4        X5        X6        X7        X8
            1      0.000E+00 2.000E+00 4.000E+00 6.000E+00 8.000E+00 1.000E+01 1.200E+01 1.400E+01

    Z VALUES ARE RELATIVE TO STREAMBED ELEVATION

     SEGMENT NO.          Z1        Z2        Z3        Z4        Z5        Z6        Z7        Z8
            1      6.000E+00 4.500E+00 3.500E+00 0.000E+00 3.000E-01 3.500E+00 4.500E+00 6.000E+00



 
 SOLVING FOR HEAD 

 NO OUTPUT CONTROL FOR STRESS PERIOD   23   TIME STEP   1
 
 SOLVING FOR HEAD 

 NO OUTPUT CONTROL FOR STRESS PERIOD   23   TIME STEP   2
 
 SOLVING FOR HEAD 

 NO OUTPUT CONTROL FOR STRESS PERIOD   23   TIME STEP   3
 
 SOLVING FOR HEAD 

 NO OUTPUT CONTROL FOR STRESS PERIOD   23   TIME STEP   4
 
 SOLVING FOR HEAD 

 NO OUTPUT CONTROL FOR STRESS PERIOD   23   TIME STEP   5
 
 SOLVING FOR HEAD 

 NO OUTPUT CONTROL FOR STRESS PERIOD   23   TIME STEP   6
 
 SOLVING FOR HEAD 

 NO OUTPUT CONTROL FOR STRESS PERIOD   23   TIME STEP   7
 
 SOLVING FOR HEAD 

 NO OUTPUT CONTROL FOR STRESS PERIOD   23   TIME STEP   8
 
 SOLVING FOR HEAD 

 NO OUTPUT CONTROL FOR STRESS PERIOD   23   TIME STEP   9
 
 SOLVING FOR HEAD 

 NO OUTPUT CONTROL FOR STRESS PERIOD   23   TIME STEP  10
 
 SOLVING FOR HEAD 

 NO OUTPUT CONTROL FOR STRESS PERIOD   23   TIME STEP  11
 
 SOLVING FOR HEAD 

 NO OUTPUT CONTROL FOR STRESS PERIOD   23   TIME STEP  12
 
 SOLVING FOR HEAD 

 NO OUTPUT CONTROL FOR STRESS PERIOD   23   TIME STEP  13
 
 SOLVING FOR HEAD 

 NO OUTPUT CONTROL FOR STRESS PERIOD   23   TIME STEP  14
 
 SOLVING FOR HEAD 

 NO OUTPUT CONTROL FOR STRESS PERIOD   23   TIME STEP  15
 
 SOLVING FOR HEAD 

 NO OUTPUT CONTROL FOR STRESS PERIOD   23   TIME STEP  16
 
 SOLVING FOR HEAD 

 NO OUTPUT CONTROL FOR STRESS PERIOD   23   TIME STEP  17
 
 SOLVING FOR HEAD 

 NO OUTPUT CONTROL FOR STRESS PERIOD   23   TIME STEP  18
 
 SOLVING FOR HEAD 

 NO OUTPUT CONTROL FOR STRESS PERIOD   23   TIME STEP  19
 
 SOLVING FOR HEAD 

 NO OUTPUT CONTROL FOR STRESS PERIOD   23   TIME STEP  20
 
 SOLVING FOR HEAD 

 NO OUTPUT CONTROL FOR STRESS PERIOD   23   TIME STEP  21
 
 SOLVING FOR HEAD 

 NO OUTPUT CONTROL FOR STRESS PERIOD   23   TIME STEP  22
 
 SOLVING FOR HEAD 

 NO OUTPUT CONTROL FOR STRESS PERIOD   23   TIME STEP  23
 
 SOLVING FOR HEAD 

 NO OUTPUT CONTROL FOR STRESS PERIOD   23   TIME STEP  24
 
 SOLVING FOR HEAD 

 NO OUTPUT CONTROL FOR STRESS PERIOD   23   TIME STEP  25
 
 SOLVING FOR HEAD 

 NO OUTPUT CONTROL FOR STRESS PERIOD   23   TIME STEP  26
 
 SOLVING FOR HEAD 

 NO OUTPUT CONTROL FOR STRESS PERIOD   23   TIME STEP  27
 
 SOLVING FOR HEAD 

 NO OUTPUT CONTROL FOR STRESS PERIOD   23   TIME STEP  28
 
 SOLVING FOR HEAD 

 NO OUTPUT CONTROL FOR STRESS PERIOD   23   TIME STEP  29
 
 SOLVING FOR HEAD 

 NO OUTPUT CONTROL FOR STRESS PERIOD   23   TIME STEP  30
1
  VOLUMETRIC BUDGET FOR UNSATURATED ZONE BENEATH STREAMS AT END OF TIME STEP  30 STRESS PERIOD  23
  ------------------------------------------------------------------------------------------------

    CUMULATIVE VOLUMES             L**3    RATES FOR THIS TIME STEP         L**3/T
    ------------------                     ------------------------


          STREAM LOSS =     27053894.0000            STREAM LOSS =            0.1509
    CHANGE IN STORAGE =       412166.1250      CHANGE IN STORAGE =       -7.3230E-03
       RECHARGE TO GW =     26641438.0000         RECHARGE TO GW =            0.1582

             TOTAL IN =     27053894.0000               TOTAL IN =            0.1582

            TOTAL OUT =     27053604.0000              TOTAL OUT =            0.1582

             IN - OUT =          290.0000               IN - OUT =        2.0023E-08

  PERCENT DISCREPANCY =            0.00      PERCENT DISCREPANCY =             0.00



1
  VOLUMETRIC BUDGET FOR ENTIRE MODEL AT END OF TIME STEP 30 IN STRESS PERIOD  23
  ------------------------------------------------------------------------------

     CUMULATIVE VOLUMES      L**3       RATES FOR THIS TIME STEP      L**3/T
     ------------------                 ------------------------

           IN:                                      IN:
           ---                                      ---
             STORAGE =    10856652.0000               STORAGE =           0.1307
       CONSTANT HEAD =           0.0000         CONSTANT HEAD =           0.0000
     HEAD DEP BOUNDS =           0.0000       HEAD DEP BOUNDS =           0.0000
      STREAM LEAKAGE =    26641404.0000        STREAM LEAKAGE =           0.1582

            TOTAL IN =    37498056.0000              TOTAL IN =           0.2889

          OUT:                                     OUT:
          ----                                     ----
             STORAGE =    15645158.0000               STORAGE =       2.4398E-02
       CONSTANT HEAD =           0.0000         CONSTANT HEAD =           0.0000
     HEAD DEP BOUNDS =    21852418.0000       HEAD DEP BOUNDS =           0.2644
      STREAM LEAKAGE =           0.0000        STREAM LEAKAGE =           0.0000

           TOTAL OUT =    37497576.0000             TOTAL OUT =           0.2888

            IN - OUT =         480.0000              IN - OUT =       6.8873E-05

 PERCENT DISCREPANCY =           0.00     PERCENT DISCREPANCY =           0.02






          TIME SUMMARY AT END OF TIME STEP  30 IN STRESS PERIOD   23
                    SECONDS     MINUTES      HOURS       DAYS        YEARS
                    -----------------------------------------------------------
   TIME STEP LENGTH 2.49961E+05  4166.0      69.434      2.8931     7.92080E-03
 STRESS PERIOD TIME 2.59200E+06  43200.      720.00      30.000     8.21355E-02
         TOTAL TIME 5.96160E+07 9.93599E+05  16560.      690.00      1.8891    
1
1
                            STRESS PERIOD NO.   24, LENGTH =   2592000.    
                            -----------------------------------------------

                              NUMBER OF TIME STEPS =    30

                               MULTIPLIER FOR DELT =     1.100

                            INITIAL TIME STEP SIZE =   15757.40    

 REUSING NON-PARAMETER GHB CELLS FROM LAST STRESS PERIOD

      7 GHB CELLS



 CLASSIFICATION & COUNT OF STREAM SEGMENTS BASED ON SOURCE OF INFLOW:

                HEADWATER     DIVERSION     RECEIVES TRIBUTARY FLOW
                ---------     ---------     -----------------------
                     1              0               0



                    INPUT DATA FOR EACH STREAM SEGMENT
 ---------------------------------------------------------------------------------------------

 SEGMENT    SEG.     INFLOW   OVERLAND   STREAM    STREAM   ICALC  OUTFLOW  DIVERSION PRIORITY
    NO.    LENGTH     RATE     RUNOFF      ET       PPT.    METH.  TO SEG.  FROM SEG.    NO.

      1  2.000E+04 1.163E+00 0.000E+00 0.000E+00 0.000E+00    2        0        0        0


         STREAMBED PROPERTIES AND STREAM DIMENSIONS

 SEGMENT     BED HYD. COND.      BED THICKNESS     ELEV.-TOP OF BED     WIDTH OF STREAM     DEPTH OF STREAM    STREAM ROUGHNESS
    No.     UPPER     LOWER     UPPER     LOWER     UPPER     LOWER     UPPER     LOWER     UPPER     LOWER   CHANNEL      BANK

     1  3.500E-07 3.500E-07                                                                                 3.000E-02 4.000E-02

  EIGHT POINT CROSS-SECTION DATA FOR SEGMENTS WITH ICALC = 2
    X VALUES X VALUES START FROM LEFT SIDE LOOKING DOWNSTREAM

     SEGMENT NO.        X1        X2        X3        X4        X5        X6        X7        X8
            1      0.000E+00 2.000E+00 4.000E+00 6.000E+00 8.000E+00 1.000E+01 1.200E+01 1.400E+01

    Z VALUES ARE RELATIVE TO STREAMBED ELEVATION

     SEGMENT NO.          Z1        Z2        Z3        Z4        Z5        Z6        Z7        Z8
            1      6.000E+00 4.500E+00 3.500E+00 0.000E+00 3.000E-01 3.500E+00 4.500E+00 6.000E+00



 
 SOLVING FOR HEAD 

 NO OUTPUT CONTROL FOR STRESS PERIOD   24   TIME STEP   1
 
 SOLVING FOR HEAD 

 NO OUTPUT CONTROL FOR STRESS PERIOD   24   TIME STEP   2
 
 SOLVING FOR HEAD 

 NO OUTPUT CONTROL FOR STRESS PERIOD   24   TIME STEP   3
 
 SOLVING FOR HEAD 

 NO OUTPUT CONTROL FOR STRESS PERIOD   24   TIME STEP   4
 
 SOLVING FOR HEAD 

 NO OUTPUT CONTROL FOR STRESS PERIOD   24   TIME STEP   5
 
 SOLVING FOR HEAD 

 NO OUTPUT CONTROL FOR STRESS PERIOD   24   TIME STEP   6
 
 SOLVING FOR HEAD 

 NO OUTPUT CONTROL FOR STRESS PERIOD   24   TIME STEP   7
 
 SOLVING FOR HEAD 

 NO OUTPUT CONTROL FOR STRESS PERIOD   24   TIME STEP   8
 
 SOLVING FOR HEAD 

 NO OUTPUT CONTROL FOR STRESS PERIOD   24   TIME STEP   9
 
 SOLVING FOR HEAD 

 NO OUTPUT CONTROL FOR STRESS PERIOD   24   TIME STEP  10
 
 SOLVING FOR HEAD 

 NO OUTPUT CONTROL FOR STRESS PERIOD   24   TIME STEP  11
 
 SOLVING FOR HEAD 

 NO OUTPUT CONTROL FOR STRESS PERIOD   24   TIME STEP  12
 
 SOLVING FOR HEAD 

 NO OUTPUT CONTROL FOR STRESS PERIOD   24   TIME STEP  13
 
 SOLVING FOR HEAD 

 NO OUTPUT CONTROL FOR STRESS PERIOD   24   TIME STEP  14
 
 SOLVING FOR HEAD 

 NO OUTPUT CONTROL FOR STRESS PERIOD   24   TIME STEP  15
 
 SOLVING FOR HEAD 

 NO OUTPUT CONTROL FOR STRESS PERIOD   24   TIME STEP  16
 
 SOLVING FOR HEAD 

 NO OUTPUT CONTROL FOR STRESS PERIOD   24   TIME STEP  17
 
 SOLVING FOR HEAD 

 NO OUTPUT CONTROL FOR STRESS PERIOD   24   TIME STEP  18
 
 SOLVING FOR HEAD 

 NO OUTPUT CONTROL FOR STRESS PERIOD   24   TIME STEP  19
 
 SOLVING FOR HEAD 

 NO OUTPUT CONTROL FOR STRESS PERIOD   24   TIME STEP  20
 
 SOLVING FOR HEAD 

 NO OUTPUT CONTROL FOR STRESS PERIOD   24   TIME STEP  21
 
 SOLVING FOR HEAD 

 NO OUTPUT CONTROL FOR STRESS PERIOD   24   TIME STEP  22
 
 SOLVING FOR HEAD 

 NO OUTPUT CONTROL FOR STRESS PERIOD   24   TIME STEP  23
 
 SOLVING FOR HEAD 

 NO OUTPUT CONTROL FOR STRESS PERIOD   24   TIME STEP  24
 
 SOLVING FOR HEAD 

 NO OUTPUT CONTROL FOR STRESS PERIOD   24   TIME STEP  25
 
 SOLVING FOR HEAD 

 NO OUTPUT CONTROL FOR STRESS PERIOD   24   TIME STEP  26
 
 SOLVING FOR HEAD 

 NO OUTPUT CONTROL FOR STRESS PERIOD   24   TIME STEP  27
 
 SOLVING FOR HEAD 

 NO OUTPUT CONTROL FOR STRESS PERIOD   24   TIME STEP  28
 
 SOLVING FOR HEAD 

 NO OUTPUT CONTROL FOR STRESS PERIOD   24   TIME STEP  29
 
 SOLVING FOR HEAD 

 NO OUTPUT CONTROL FOR STRESS PERIOD   24   TIME STEP  30
1
  VOLUMETRIC BUDGET FOR UNSATURATED ZONE BENEATH STREAMS AT END OF TIME STEP  30 STRESS PERIOD  24
  ------------------------------------------------------------------------------------------------

    CUMULATIVE VOLUMES             L**3    RATES FOR THIS TIME STEP         L**3/T
    ------------------                     ------------------------


          STREAM LOSS =     27217770.0000            STREAM LOSS =        6.3128E-02
    CHANGE IN STORAGE =       339132.4062      CHANGE IN STORAGE =       -3.2286E-03
       RECHARGE TO GW =     26878100.0000         RECHARGE TO GW =        6.6357E-02

             TOTAL IN =     27217770.0000               TOTAL IN =        6.6357E-02

            TOTAL OUT =     27217232.0000              TOTAL OUT =        6.6357E-02

             IN - OUT =          538.0000               IN - OUT =        2.7241E-08

  PERCENT DISCREPANCY =            0.00      PERCENT DISCREPANCY =             0.00



1
  VOLUMETRIC BUDGET FOR ENTIRE MODEL AT END OF TIME STEP 30 IN STRESS PERIOD  24
  ------------------------------------------------------------------------------

     CUMULATIVE VOLUMES      L**3       RATES FOR THIS TIME STEP      L**3/T
     ------------------                 ------------------------

           IN:                                      IN:
           ---                                      ---
             STORAGE =    11307703.0000               STORAGE =           0.1859
       CONSTANT HEAD =           0.0000         CONSTANT HEAD =           0.0000
     HEAD DEP BOUNDS =           0.0000       HEAD DEP BOUNDS =           0.0000
      STREAM LEAKAGE =    26878056.0000        STREAM LEAKAGE =       6.6357E-02

            TOTAL IN =    38185760.0000              TOTAL IN =           0.2523

          OUT:                                     OUT:
          ----                                     ----
             STORAGE =    15663538.0000               STORAGE =       2.1526E-04
       CONSTANT HEAD =           0.0000         CONSTANT HEAD =           0.0000
     HEAD DEP BOUNDS =    22521724.0000       HEAD DEP BOUNDS =           0.2520
      STREAM LEAKAGE =           0.0000        STREAM LEAKAGE =           0.0000

           TOTAL OUT =    38185264.0000             TOTAL OUT =           0.2522

            IN - OUT =         496.0000              IN - OUT =       6.2525E-05

 PERCENT DISCREPANCY =           0.00     PERCENT DISCREPANCY =           0.02






          TIME SUMMARY AT END OF TIME STEP  30 IN STRESS PERIOD   24
                    SECONDS     MINUTES      HOURS       DAYS        YEARS
                    -----------------------------------------------------------
   TIME STEP LENGTH 2.49961E+05  4166.0      69.434      2.8931     7.92080E-03
 STRESS PERIOD TIME 2.59200E+06  43200.      720.00      30.000     8.21355E-02
         TOTAL TIME 6.22080E+07 1.03680E+06  17280.      720.00      1.9713    
1
1
                            STRESS PERIOD NO.   25, LENGTH =   2592000.    
                            -----------------------------------------------

                              NUMBER OF TIME STEPS =    30

                               MULTIPLIER FOR DELT =     1.100

                            INITIAL TIME STEP SIZE =   15757.40    

 REUSING NON-PARAMETER GHB CELLS FROM LAST STRESS PERIOD

      7 GHB CELLS



 CLASSIFICATION & COUNT OF STREAM SEGMENTS BASED ON SOURCE OF INFLOW:

                HEADWATER     DIVERSION     RECEIVES TRIBUTARY FLOW
                ---------     ---------     -----------------------
                     1              0               0



                    INPUT DATA FOR EACH STREAM SEGMENT
 ---------------------------------------------------------------------------------------------

 SEGMENT    SEG.     INFLOW   OVERLAND   STREAM    STREAM   ICALC  OUTFLOW  DIVERSION PRIORITY
    NO.    LENGTH     RATE     RUNOFF      ET       PPT.    METH.  TO SEG.  FROM SEG.    NO.

      1  2.000E+04 3.290E-01 0.000E+00 0.000E+00 0.000E+00    2        0        0        0


         STREAMBED PROPERTIES AND STREAM DIMENSIONS

 SEGMENT     BED HYD. COND.      BED THICKNESS     ELEV.-TOP OF BED     WIDTH OF STREAM     DEPTH OF STREAM    STREAM ROUGHNESS
    No.     UPPER     LOWER     UPPER     LOWER     UPPER     LOWER     UPPER     LOWER     UPPER     LOWER   CHANNEL      BANK

     1  3.500E-07 3.500E-07                                                                                 3.000E-02 4.000E-02

  EIGHT POINT CROSS-SECTION DATA FOR SEGMENTS WITH ICALC = 2
    X VALUES X VALUES START FROM LEFT SIDE LOOKING DOWNSTREAM

     SEGMENT NO.        X1        X2        X3        X4        X5        X6        X7        X8
            1      0.000E+00 2.000E+00 4.000E+00 6.000E+00 8.000E+00 1.000E+01 1.200E+01 1.400E+01

    Z VALUES ARE RELATIVE TO STREAMBED ELEVATION

     SEGMENT NO.          Z1        Z2        Z3        Z4        Z5        Z6        Z7        Z8
            1      6.000E+00 4.500E+00 3.500E+00 0.000E+00 3.000E-01 3.500E+00 4.500E+00 6.000E+00



 
 SOLVING FOR HEAD 

 NO OUTPUT CONTROL FOR STRESS PERIOD   25   TIME STEP   1
 
 SOLVING FOR HEAD 

 NO OUTPUT CONTROL FOR STRESS PERIOD   25   TIME STEP   2
 
 SOLVING FOR HEAD 

 NO OUTPUT CONTROL FOR STRESS PERIOD   25   TIME STEP   3
 
 SOLVING FOR HEAD 

 NO OUTPUT CONTROL FOR STRESS PERIOD   25   TIME STEP   4
 
 SOLVING FOR HEAD 

 NO OUTPUT CONTROL FOR STRESS PERIOD   25   TIME STEP   5
 
 SOLVING FOR HEAD 

 NO OUTPUT CONTROL FOR STRESS PERIOD   25   TIME STEP   6
 
 SOLVING FOR HEAD 

 NO OUTPUT CONTROL FOR STRESS PERIOD   25   TIME STEP   7
 
 SOLVING FOR HEAD 

 NO OUTPUT CONTROL FOR STRESS PERIOD   25   TIME STEP   8
 
 SOLVING FOR HEAD 

 NO OUTPUT CONTROL FOR STRESS PERIOD   25   TIME STEP   9
 
 SOLVING FOR HEAD 

 NO OUTPUT CONTROL FOR STRESS PERIOD   25   TIME STEP  10
 
 SOLVING FOR HEAD 

 NO OUTPUT CONTROL FOR STRESS PERIOD   25   TIME STEP  11
 
 SOLVING FOR HEAD 

 NO OUTPUT CONTROL FOR STRESS PERIOD   25   TIME STEP  12
 
 SOLVING FOR HEAD 

 NO OUTPUT CONTROL FOR STRESS PERIOD   25   TIME STEP  13
 
 SOLVING FOR HEAD 

 NO OUTPUT CONTROL FOR STRESS PERIOD   25   TIME STEP  14
 
 SOLVING FOR HEAD 

 NO OUTPUT CONTROL FOR STRESS PERIOD   25   TIME STEP  15
 
 SOLVING FOR HEAD 

 NO OUTPUT CONTROL FOR STRESS PERIOD   25   TIME STEP  16
 
 SOLVING FOR HEAD 

 NO OUTPUT CONTROL FOR STRESS PERIOD   25   TIME STEP  17
 
 SOLVING FOR HEAD 

 NO OUTPUT CONTROL FOR STRESS PERIOD   25   TIME STEP  18
 
 SOLVING FOR HEAD 

 NO OUTPUT CONTROL FOR STRESS PERIOD   25   TIME STEP  19
 
 SOLVING FOR HEAD 

 NO OUTPUT CONTROL FOR STRESS PERIOD   25   TIME STEP  20
 
 SOLVING FOR HEAD 

 NO OUTPUT CONTROL FOR STRESS PERIOD   25   TIME STEP  21
 
 SOLVING FOR HEAD 

 NO OUTPUT CONTROL FOR STRESS PERIOD   25   TIME STEP  22
 
 SOLVING FOR HEAD 

 NO OUTPUT CONTROL FOR STRESS PERIOD   25   TIME STEP  23
 
 SOLVING FOR HEAD 

 NO OUTPUT CONTROL FOR STRESS PERIOD   25   TIME STEP  24
 
 SOLVING FOR HEAD 

 NO OUTPUT CONTROL FOR STRESS PERIOD   25   TIME STEP  25
 
 SOLVING FOR HEAD 

 NO OUTPUT CONTROL FOR STRESS PERIOD   25   TIME STEP  26
 
 SOLVING FOR HEAD 

 NO OUTPUT CONTROL FOR STRESS PERIOD   25   TIME STEP  27
 
 SOLVING FOR HEAD 

 NO OUTPUT CONTROL FOR STRESS PERIOD   25   TIME STEP  28
 
 SOLVING FOR HEAD 

 NO OUTPUT CONTROL FOR STRESS PERIOD   25   TIME STEP  29
 
 SOLVING FOR HEAD 

 OUTPUT CONTROL FOR STRESS PERIOD   25   TIME STEP  30
    PRINT HEAD FOR ALL LAYERS
    PRINT BUDGET
    SAVE BUDGET

  HEAD DEP BOUNDS   PERIOD   25   STEP  30
 BOUNDARY      1   LAYER   1   ROW     1   COL   100   RATE   -3.621542E-02
 BOUNDARY      2   LAYER   1   ROW     2   COL   100   RATE   -3.621365E-02
 BOUNDARY      3   LAYER   1   ROW     3   COL   100   RATE   -3.585723E-02
 BOUNDARY      4   LAYER   1   ROW     4   COL   100   RATE   -2.551267E-02
 BOUNDARY      5   LAYER   1   ROW     5   COL   100   RATE   -3.585723E-02
 BOUNDARY      6   LAYER   1   ROW     6   COL   100   RATE   -3.621364E-02
 BOUNDARY      7   LAYER   1   ROW     7   COL   100   RATE   -3.621542E-02



 STREAM LISTING     PERIOD     25   STEP       30

 LAYER ROW COL. STREAM  RCH.   FLOW INTO    STREAM     FLOW OUT OF   OVRLND.    DIRECT     STREAM      STREAM      STREAM     STREAM  STREAMBED   FLOW TO   CHNG. UNSAT. 
                SEG.NO.  NO.   STRM. RCH.    LOSS       STRM. RCH.   RUNOFF     PRECIP       ET         HEAD        DEPTH      WIDTH  CONDCTNC.   WAT. TAB.   STORAGE

   1    4    1     1     1    3.2900E-01  3.5874E-04   3.2864E-01  0.000E+00  0.000E+00  0.000E+00  1.40296E+02  4.461E-01  2.346E+00  3.792E-04  4.040E-04 -4.524E-05
   1    4    2     1     2    3.2864E-01  3.5860E-04   3.2828E-01  0.000E+00  0.000E+00  0.000E+00  1.39996E+02  4.459E-01  2.346E+00  3.791E-04  4.038E-04 -4.518E-05
   1    4    3     1     3    3.2828E-01  3.5846E-04   3.2792E-01  0.000E+00  0.000E+00  0.000E+00  1.39696E+02  4.457E-01  2.346E+00  3.790E-04  4.036E-04 -4.512E-05
   1    4    4     1     4    3.2792E-01  3.5832E-04   3.2757E-01  0.000E+00  0.000E+00  0.000E+00  1.39395E+02  4.455E-01  2.345E+00  3.790E-04  4.034E-04 -4.504E-05
   1    4    5     1     5    3.2757E-01  3.5818E-04   3.2721E-01  0.000E+00  0.000E+00  0.000E+00  1.39095E+02  4.453E-01  2.345E+00  3.789E-04  4.031E-04 -4.496E-05
   1    4    6     1     6    3.2721E-01  3.5804E-04   3.2685E-01  0.000E+00  0.000E+00  0.000E+00  1.38795E+02  4.451E-01  2.345E+00  3.789E-04  4.029E-04 -4.486E-05
   1    4    7     1     7    3.2685E-01  3.5790E-04   3.2649E-01  0.000E+00  0.000E+00  0.000E+00  1.38495E+02  4.449E-01  2.345E+00  3.788E-04  4.027E-04 -4.475E-05
   1    4    8     1     8    3.2649E-01  3.5776E-04   3.2613E-01  0.000E+00  0.000E+00  0.000E+00  1.38195E+02  4.447E-01  2.345E+00  3.787E-04  4.024E-04 -4.462E-05
   1    4    9     1     9    3.2613E-01  3.5763E-04   3.2578E-01  0.000E+00  0.000E+00  0.000E+00  1.37894E+02  4.445E-01  2.344E+00  3.787E-04  4.021E-04 -4.447E-05
   1    4   10     1    10    3.2578E-01  3.5749E-04   3.2542E-01  0.000E+00  0.000E+00  0.000E+00  1.37594E+02  4.443E-01  2.344E+00  3.786E-04  4.018E-04 -4.431E-05
   1    4   11     1    11    3.2542E-01  3.5735E-04   3.2506E-01  0.000E+00  0.000E+00  0.000E+00  1.37294E+02  4.441E-01  2.344E+00  3.785E-04  4.015E-04 -4.412E-05
   1    4   12     1    12    3.2506E-01  3.5721E-04   3.2470E-01  0.000E+00  0.000E+00  0.000E+00  1.36994E+02  4.439E-01  2.344E+00  3.785E-04  3.979E-04 -4.073E-05
   1    4   13     1    13    3.2470E-01  3.5707E-04   3.2435E-01  0.000E+00  0.000E+00  0.000E+00  1.36694E+02  4.437E-01  2.343E+00  3.784E-04  3.866E-04 -2.953E-05
   1    4   14     1    14    3.2435E-01  3.5693E-04   3.2399E-01  0.000E+00  0.000E+00  0.000E+00  1.36393E+02  4.435E-01  2.343E+00  3.783E-04  3.788E-04 -2.192E-05
   1    4   15     1    15    3.2399E-01  3.5679E-04   3.2363E-01  0.000E+00  0.000E+00  0.000E+00  1.36093E+02  4.433E-01  2.343E+00  3.783E-04  3.785E-04 -2.172E-05
   1    4   16     1    16    3.2363E-01  3.5665E-04   3.2328E-01  0.000E+00  0.000E+00  0.000E+00  1.35793E+02  4.431E-01  2.343E+00  3.782E-04  3.782E-04 -2.152E-05
   1    4   17     1    17    3.2328E-01  3.5651E-04   3.2292E-01  0.000E+00  0.000E+00  0.000E+00  1.35493E+02  4.428E-01  2.342E+00  3.781E-04  3.778E-04 -2.129E-05
   1    4   18     1    18    3.2292E-01  3.5637E-04   3.2256E-01  0.000E+00  0.000E+00  0.000E+00  1.35193E+02  4.426E-01  2.342E+00  3.781E-04  3.774E-04 -2.105E-05
   1    4   19     1    19    3.2256E-01  3.5624E-04   3.2221E-01  0.000E+00  0.000E+00  0.000E+00  1.34892E+02  4.424E-01  2.342E+00  3.780E-04  3.770E-04 -2.079E-05
   1    4   20     1    20    3.2221E-01  3.5610E-04   3.2185E-01  0.000E+00  0.000E+00  0.000E+00  1.34592E+02  4.422E-01  2.342E+00  3.779E-04  3.766E-04 -2.052E-05
   1    4   21     1    21    3.2185E-01  3.5596E-04   3.2150E-01  0.000E+00  0.000E+00  0.000E+00  1.34292E+02  4.420E-01  2.341E+00  3.779E-04  3.762E-04 -2.023E-05
   1    4   22     1    22    3.2150E-01  3.5582E-04   3.2114E-01  0.000E+00  0.000E+00  0.000E+00  1.33992E+02  4.418E-01  2.341E+00  3.778E-04  3.758E-04 -1.994E-05
   1    4   23     1    23    3.2114E-01  3.5568E-04   3.2078E-01  0.000E+00  0.000E+00  0.000E+00  1.33692E+02  4.416E-01  2.341E+00  3.777E-04  3.753E-04 -1.963E-05
   1    4   24     1    24    3.2078E-01  3.5554E-04   3.2043E-01  0.000E+00  0.000E+00  0.000E+00  1.33391E+02  4.414E-01  2.341E+00  3.777E-04  3.748E-04 -1.931E-05
   1    4   25     1    25    3.2043E-01  3.5540E-04   3.2007E-01  0.000E+00  0.000E+00  0.000E+00  1.33091E+02  4.412E-01  2.340E+00  3.776E-04  3.744E-04 -1.897E-05
   1    4   26     1    26    3.2007E-01  3.5526E-04   3.1972E-01  0.000E+00  0.000E+00  0.000E+00  1.32791E+02  4.410E-01  2.340E+00  3.775E-04  3.739E-04 -1.863E-05
   1    4   27     1    27    3.1972E-01  3.5513E-04   3.1936E-01  0.000E+00  0.000E+00  0.000E+00  1.32491E+02  4.408E-01  2.340E+00  3.775E-04  3.734E-04 -1.827E-05
   1    4   28     1    28    3.1936E-01  3.5499E-04   3.1901E-01  0.000E+00  0.000E+00  0.000E+00  1.32191E+02  4.406E-01  2.340E+00  3.774E-04  3.729E-04 -1.790E-05
   1    4   29     1    29    3.1901E-01  3.5485E-04   3.1865E-01  0.000E+00  0.000E+00  0.000E+00  1.31890E+02  4.404E-01  2.339E+00  3.773E-04  3.724E-04 -1.752E-05
   1    4   30     1    30    3.1865E-01  3.5471E-04   3.1830E-01  0.000E+00  0.000E+00  0.000E+00  1.31590E+02  4.402E-01  2.339E+00  3.773E-04  3.718E-04 -1.713E-05
   1    4   31     1    31    3.1830E-01  3.5457E-04   3.1794E-01  0.000E+00  0.000E+00  0.000E+00  1.31290E+02  4.400E-01  2.339E+00  3.772E-04  3.713E-04 -1.673E-05
   1    4   32     1    32    3.1794E-01  3.5443E-04   3.1759E-01  0.000E+00  0.000E+00  0.000E+00  1.30990E+02  4.398E-01  2.339E+00  3.771E-04  3.708E-04 -1.632E-05
   1    4   33     1    33    3.1759E-01  3.5429E-04   3.1723E-01  0.000E+00  0.000E+00  0.000E+00  1.30690E+02  4.396E-01  2.338E+00  3.771E-04  3.702E-04 -1.590E-05
   1    4   34     1    34    3.1723E-01  3.5416E-04   3.1688E-01  0.000E+00  0.000E+00  0.000E+00  1.30389E+02  4.394E-01  2.338E+00  3.770E-04  3.696E-04 -1.547E-05
   1    4   35     1    35    3.1688E-01  3.5402E-04   3.1653E-01  0.000E+00  0.000E+00  0.000E+00  1.30089E+02  4.392E-01  2.338E+00  3.769E-04  3.691E-04 -1.504E-05
   1    4   36     1    36    3.1653E-01  3.5388E-04   3.1617E-01  0.000E+00  0.000E+00  0.000E+00  1.29789E+02  4.390E-01  2.338E+00  3.769E-04  3.685E-04 -1.459E-05
   1    4   37     1    37    3.1617E-01  3.5374E-04   3.1582E-01  0.000E+00  0.000E+00  0.000E+00  1.29489E+02  4.388E-01  2.337E+00  3.768E-04  3.679E-04 -1.414E-05
   1    4   38     1    38    3.1582E-01  3.5360E-04   3.1547E-01  0.000E+00  0.000E+00  0.000E+00  1.29189E+02  4.386E-01  2.337E+00  3.767E-04  3.673E-04 -1.368E-05
   1    4   39     1    39    3.1547E-01  3.5346E-04   3.1511E-01  0.000E+00  0.000E+00  0.000E+00  1.28888E+02  4.384E-01  2.337E+00  3.767E-04  3.667E-04 -1.321E-05
   1    4   40     1    40    3.1511E-01  3.5332E-04   3.1476E-01  0.000E+00  0.000E+00  0.000E+00  1.28588E+02  4.382E-01  2.337E+00  3.766E-04  3.661E-04 -1.273E-05
   1    4   41     1    41    3.1476E-01  3.5319E-04   3.1441E-01  0.000E+00  0.000E+00  0.000E+00  1.28288E+02  4.380E-01  2.337E+00  3.765E-04  3.654E-04 -1.225E-05
   1    4   42     1    42    3.1441E-01  3.5305E-04   3.1405E-01  0.000E+00  0.000E+00  0.000E+00  1.27988E+02  4.378E-01  2.336E+00  3.765E-04  3.648E-04 -1.176E-05
   1    4   43     1    43    3.1405E-01  3.5291E-04   3.1370E-01  0.000E+00  0.000E+00  0.000E+00  1.27688E+02  4.376E-01  2.336E+00  3.764E-04  3.642E-04 -1.127E-05
   1    4   44     1    44    3.1370E-01  3.5277E-04   3.1335E-01  0.000E+00  0.000E+00  0.000E+00  1.27387E+02  4.374E-01  2.336E+00  3.763E-04  3.635E-04 -1.077E-05
   1    4   45     1    45    3.1335E-01  3.5263E-04   3.1299E-01  0.000E+00  0.000E+00  0.000E+00  1.27087E+02  4.372E-01  2.336E+00  3.763E-04  3.629E-04 -1.027E-05
   1    4   46     1    46    3.1299E-01  3.5249E-04   3.1264E-01  0.000E+00  0.000E+00  0.000E+00  1.26787E+02  4.370E-01  2.335E+00  3.762E-04  3.623E-04 -9.760E-06
   1    4   47     1    47    3.1264E-01  3.5236E-04   3.1229E-01  0.000E+00  0.000E+00  0.000E+00  1.26487E+02  4.368E-01  2.335E+00  3.761E-04  3.616E-04 -9.249E-06
   1    4   48     1    48    3.1229E-01  3.5222E-04   3.1194E-01  0.000E+00  0.000E+00  0.000E+00  1.26187E+02  4.366E-01  2.335E+00  3.761E-04  3.610E-04 -8.734E-06
   1    4   49     1    49    3.1194E-01  3.5208E-04   3.1159E-01  0.000E+00  0.000E+00  0.000E+00  1.25886E+02  4.364E-01  2.335E+00  3.760E-04  3.603E-04 -8.216E-06
   1    4   50     1    50    3.1159E-01  3.5194E-04   3.1123E-01  0.000E+00  0.000E+00  0.000E+00  1.25586E+02  4.362E-01  2.334E+00  3.759E-04  3.596E-04 -7.693E-06
   1    4   51     1    51    3.1123E-01  3.5180E-04   3.1088E-01  0.000E+00  0.000E+00  0.000E+00  1.25286E+02  4.360E-01  2.334E+00  3.759E-04  3.590E-04 -7.168E-06
   1    4   52     1    52    3.1088E-01  3.5167E-04   3.1053E-01  0.000E+00  0.000E+00  0.000E+00  1.24986E+02  4.358E-01  2.334E+00  3.758E-04  3.583E-04 -6.640E-06
   1    4   53     1    53    3.1053E-01  3.5153E-04   3.1018E-01  0.000E+00  0.000E+00  0.000E+00  1.24686E+02  4.356E-01  2.334E+00  3.757E-04  3.576E-04 -6.111E-06
   1    4   54     1    54    3.1018E-01  3.5139E-04   3.0983E-01  0.000E+00  0.000E+00  0.000E+00  1.24385E+02  4.354E-01  2.333E+00  3.757E-04  3.570E-04 -5.580E-06
   1    4   55     1    55    3.0983E-01  3.5125E-04   3.0948E-01  0.000E+00  0.000E+00  0.000E+00  1.24085E+02  4.351E-01  2.333E+00  3.756E-04  3.563E-04 -5.049E-06
   1    4   56     1    56    3.0948E-01  3.5111E-04   3.0912E-01  0.000E+00  0.000E+00  0.000E+00  1.23785E+02  4.349E-01  2.333E+00  3.755E-04  3.556E-04 -4.516E-06
   1    4   57     1    57    3.0912E-01  3.5097E-04   3.0877E-01  0.000E+00  0.000E+00  0.000E+00  1.23485E+02  4.347E-01  2.333E+00  3.755E-04  3.550E-04 -3.983E-06
   1    4   58     1    58    3.0877E-01  3.5084E-04   3.0842E-01  0.000E+00  0.000E+00  0.000E+00  1.23185E+02  4.345E-01  2.332E+00  3.754E-04  3.543E-04 -3.450E-06
   1    4   59     1    59    3.0842E-01  3.5070E-04   3.0807E-01  0.000E+00  0.000E+00  0.000E+00  1.22884E+02  4.343E-01  2.332E+00  3.753E-04  3.536E-04 -2.918E-06
   1    4   60     1    60    3.0807E-01  3.5056E-04   3.0772E-01  0.000E+00  0.000E+00  0.000E+00  1.22584E+02  4.341E-01  2.332E+00  3.753E-04  3.529E-04 -2.387E-06
   1    4   61     1    61    3.0772E-01  3.5042E-04   3.0737E-01  0.000E+00  0.000E+00  0.000E+00  1.22284E+02  4.339E-01  2.332E+00  3.752E-04  3.523E-04 -1.857E-06
   1    4   62     1    62    3.0737E-01  3.5028E-04   3.0702E-01  0.000E+00  0.000E+00  0.000E+00  1.21984E+02  4.337E-01  2.331E+00  3.751E-04  3.516E-04 -1.331E-06
   1    4   63     1    63    3.0702E-01  3.5015E-04   3.0667E-01  0.000E+00  0.000E+00  0.000E+00  1.21684E+02  4.335E-01  2.331E+00  3.751E-04  3.510E-04 -8.083E-07
   1    4   64     1    64    3.0667E-01  3.5001E-04   3.0632E-01  0.000E+00  0.000E+00  0.000E+00  1.21383E+02  4.333E-01  2.331E+00  3.750E-04  3.503E-04 -2.918E-07
   1    4   65     1    65    3.0632E-01  3.4987E-04   3.0597E-01  0.000E+00  0.000E+00  0.000E+00  1.21083E+02  4.331E-01  2.331E+00  3.749E-04  3.497E-04  2.192E-07
   1    4   66     1    66    3.0597E-01  3.4973E-04   3.0562E-01  0.000E+00  0.000E+00  0.000E+00  1.20783E+02  4.329E-01  2.330E+00  3.749E-04  3.490E-04  7.218E-07
   1    4   67     1    67    3.0562E-01  3.4960E-04   3.0527E-01  0.000E+00  0.000E+00  0.000E+00  1.20483E+02  4.327E-01  2.330E+00  3.748E-04  3.484E-04  1.216E-06
   1    4   68     1    68    3.0527E-01  3.4946E-04   3.0492E-01  0.000E+00  0.000E+00  0.000E+00  1.20183E+02  4.325E-01  2.330E+00  3.747E-04  3.478E-04  1.698E-06
   1    4   69     1    69    3.0492E-01  3.4932E-04   3.0457E-01  0.000E+00  0.000E+00  0.000E+00  1.19882E+02  4.323E-01  2.330E+00  3.747E-04  3.472E-04  2.167E-06
   1    4   70     1    70    3.0457E-01  3.4918E-04   3.0422E-01  0.000E+00  0.000E+00  0.000E+00  1.19582E+02  4.321E-01  2.329E+00  3.746E-04  3.466E-04  2.619E-06
   1    4   71     1    71    3.0422E-01  3.4904E-04   3.0387E-01  0.000E+00  0.000E+00  0.000E+00  1.19282E+02  4.319E-01  2.329E+00  3.746E-04  3.460E-04  3.052E-06
   1    4   72     1    72    3.0387E-01  3.4891E-04   3.0353E-01  0.000E+00  0.000E+00  0.000E+00  1.18982E+02  4.317E-01  2.329E+00  3.745E-04  3.454E-04  3.462E-06
   1    4   73     1    73    3.0353E-01  3.4877E-04   3.0318E-01  0.000E+00  0.000E+00  0.000E+00  1.18681E+02  4.315E-01  2.329E+00  3.744E-04  3.449E-04  3.847E-06
   1    4   74     1    74    3.0318E-01  3.4863E-04   3.0283E-01  0.000E+00  0.000E+00  0.000E+00  1.18381E+02  4.313E-01  2.329E+00  3.744E-04  3.444E-04  4.201E-06
   1    4   75     1    75    3.0283E-01  3.4849E-04   3.0248E-01  0.000E+00  0.000E+00  0.000E+00  1.18081E+02  4.311E-01  2.328E+00  3.743E-04  3.440E-04  4.520E-06
   1    4   76     1    76    3.0248E-01  3.4836E-04   3.0213E-01  0.000E+00  0.000E+00  0.000E+00  1.17781E+02  4.309E-01  2.328E+00  3.742E-04  3.436E-04  4.800E-06
   1    4   77     1    77    3.0213E-01  3.4822E-04   3.0178E-01  0.000E+00  0.000E+00  0.000E+00  1.17481E+02  4.307E-01  2.328E+00  3.742E-04  3.432E-04  5.035E-06
   1    4   78     1    78    3.0178E-01  3.4808E-04   3.0143E-01  0.000E+00  0.000E+00  0.000E+00  1.17180E+02  4.305E-01  2.328E+00  3.741E-04  3.429E-04  5.219E-06
   1    4   79     1    79    3.0143E-01  3.4794E-04   3.0109E-01  0.000E+00  0.000E+00  0.000E+00  1.16880E+02  4.303E-01  2.327E+00  3.740E-04  3.426E-04  5.346E-06
   1    4   80     1    80    3.0109E-01  3.4781E-04   3.0074E-01  0.000E+00  0.000E+00  0.000E+00  1.16580E+02  4.301E-01  2.327E+00  3.740E-04  3.424E-04  5.411E-06
   1    4   81     1    81    3.0074E-01  3.4767E-04   3.0039E-01  0.000E+00  0.000E+00  0.000E+00  1.16280E+02  4.299E-01  2.327E+00  3.739E-04  3.422E-04  5.418E-06
   1    4   82     1    82    3.0039E-01  3.4753E-04   3.0004E-01  0.000E+00  0.000E+00  0.000E+00  1.15980E+02  4.297E-01  2.327E+00  3.738E-04  3.555E-04 -7.960E-06
   1    4   83     1    83    3.0004E-01  3.4739E-04   2.9970E-01  0.000E+00  0.000E+00  0.000E+00  1.15679E+02  4.295E-01  2.326E+00  3.738E-04  3.614E-04 -1.405E-05
   1    4   84     1    84    2.9970E-01  3.4725E-04   2.9935E-01  0.000E+00  0.000E+00  0.000E+00  1.15379E+02  4.293E-01  2.326E+00  3.737E-04  3.616E-04 -1.436E-05
   1    4   85     1    85    2.9935E-01  3.4712E-04   2.9900E-01  0.000E+00  0.000E+00  0.000E+00  1.15079E+02  4.291E-01  2.326E+00  3.736E-04  3.619E-04 -1.478E-05
   1    4   86     1    86    2.9900E-01  3.4698E-04   2.9866E-01  0.000E+00  0.000E+00  0.000E+00  1.14779E+02  4.289E-01  2.326E+00  3.736E-04  3.623E-04 -1.532E-05
   1    4   87     1    87    2.9866E-01  3.4684E-04   2.9831E-01  0.000E+00  0.000E+00  0.000E+00  1.14479E+02  4.287E-01  2.325E+00  3.735E-04  3.628E-04 -1.599E-05
   1    4   88     1    88    2.9831E-01  3.4670E-04   2.9796E-01  0.000E+00  0.000E+00  0.000E+00  1.14178E+02  4.284E-01  2.325E+00  3.734E-04  3.635E-04 -1.680E-05
   1    4   89     1    89    2.9796E-01  3.4657E-04   2.9762E-01  0.000E+00  0.000E+00  0.000E+00  1.13878E+02  4.282E-01  2.325E+00  3.734E-04  3.643E-04 -1.777E-05
   1    4   90     1    90    2.9762E-01  3.4643E-04   2.9727E-01  0.000E+00  0.000E+00  0.000E+00  1.13578E+02  4.280E-01  2.325E+00  3.733E-04  3.653E-04 -1.890E-05
   1    4   91     1    91    2.9727E-01  3.4629E-04   2.9692E-01  0.000E+00  0.000E+00  0.000E+00  1.13278E+02  4.278E-01  2.324E+00  3.732E-04  3.674E-04 -2.108E-05
   1    4   92     1    92    2.9692E-01  3.4616E-04   2.9658E-01  0.000E+00  0.000E+00  0.000E+00  1.12978E+02  4.276E-01  2.324E+00  3.732E-04  3.947E-04 -4.853E-05
   1    4   93     1    93    2.9658E-01  3.4602E-04   2.9623E-01  0.000E+00  0.000E+00  0.000E+00  1.12677E+02  4.274E-01  2.324E+00  3.731E-04  3.963E-04 -5.033E-05
   1    4   94     1    94    2.9623E-01  3.4588E-04   2.9588E-01  0.000E+00  0.000E+00  0.000E+00  1.12377E+02  4.272E-01  2.324E+00  3.730E-04  3.982E-04 -5.231E-05
   1    4   95     1    95    2.9588E-01  3.4574E-04   2.9554E-01  0.000E+00  0.000E+00  0.000E+00  1.12077E+02  4.270E-01  2.323E+00  3.730E-04  4.003E-04 -5.451E-05
   1    4   96     1    96    2.9554E-01  3.4561E-04   2.9519E-01  0.000E+00  0.000E+00  0.000E+00  1.11777E+02  4.268E-01  2.323E+00  3.729E-04  4.026E-04 -5.697E-05
   1    4   97     1    97    2.9519E-01  3.4547E-04   2.9485E-01  0.000E+00  0.000E+00  0.000E+00  1.11477E+02  4.266E-01  2.323E+00  3.728E-04  4.158E-04 -7.034E-05
   1    4   98     1    98    2.9485E-01  3.4533E-04   2.9450E-01  0.000E+00  0.000E+00  0.000E+00  1.11176E+02  4.264E-01  2.323E+00  3.728E-04  4.316E-04 -8.629E-05
   1    4   99     1    99    2.9450E-01  3.4519E-04   2.9416E-01  0.000E+00  0.000E+00  0.000E+00  1.10876E+02  4.262E-01  2.322E+00  3.727E-04  4.520E-04 -1.068E-04
   1    4  100     1   100    2.9416E-01  3.4506E-04   2.9381E-01  0.000E+00  0.000E+00  0.000E+00  1.10576E+02  4.260E-01  2.322E+00  3.726E-04  4.743E-04 -1.292E-04



1
  VOLUMETRIC BUDGET FOR UNSATURATED ZONE BENEATH STREAMS AT END OF TIME STEP  30 STRESS PERIOD  25
  ------------------------------------------------------------------------------------------------

    CUMULATIVE VOLUMES             L**3    RATES FOR THIS TIME STEP         L**3/T
    ------------------                     ------------------------


          STREAM LOSS =     27309112.0000            STREAM LOSS =        3.5188E-02
    CHANGE IN STORAGE =       299401.9062      CHANGE IN STORAGE =       -1.9525E-03
       RECHARGE TO GW =     27009100.0000         RECHARGE TO GW =        3.7141E-02

             TOTAL IN =     27309112.0000               TOTAL IN =        3.7141E-02

            TOTAL OUT =     27308502.0000              TOTAL OUT =        3.7141E-02

             IN - OUT =          610.0000               IN - OUT =        7.5670E-09

  PERCENT DISCREPANCY =            0.00      PERCENT DISCREPANCY =             0.00



1
              HEAD IN LAYER   1 AT END OF TIME STEP  30 IN STRESS PERIOD   25
  ---------------------------------------------------------------------------

          1      2      3      4      5      6      7      8      9     10
         11     12     13     14     15     16     17     18     19     20
         21     22     23     24     25     26     27     28     29     30
         31     32     33     34     35     36     37     38     39     40
         41     42     43     44     45     46     47     48     49     50
         51     52     53     54     55     56     57     58     59     60
         61     62     63     64     65     66     67     68     69     70
         71     72     73     74     75     76     77     78     79     80
         81     82     83     84     85     86     87     88     89     90
         91     92     93     94     95     96     97     98     99    100
 .........................................................................
   1   115.0  115.0  115.0  114.9  114.9  114.9  114.9  114.9  114.9  114.8
       114.8  114.8  114.8  114.7  114.7  114.6  114.6  114.6  114.5  114.4
       114.4  114.3  114.3  114.2  114.1  114.0  114.0  113.9  113.8  113.7
       113.6  113.5  113.3  113.2  113.1  113.0  112.8  112.7  112.5  112.4
       112.2  112.0  111.8  111.6  111.4  111.2  111.0  110.8  110.5  110.3
       110.0  109.8  109.5  109.2  108.9  108.6  108.2  107.9  107.5  107.1
       106.8  106.4  105.9  105.5  105.1  104.6  104.1  103.6  103.1  102.6
       102.0  101.4  100.8  100.2   99.6   98.9   98.2   97.5   96.8   96.0
        95.2   94.4   93.6   92.7   91.9   90.9   90.0   89.0   88.0   87.0
        85.9   84.8   83.7   82.6   81.4   80.2   78.9   77.6   76.3   75.0
   2   115.0  115.0  115.0  114.9  114.9  114.9  114.9  114.9  114.9  114.8
       114.8  114.8  114.8  114.7  114.7  114.6  114.6  114.6  114.5  114.4
       114.4  114.3  114.3  114.2  114.1  114.0  114.0  113.9  113.8  113.7
       113.6  113.5  113.3  113.2  113.1  113.0  112.8  112.7  112.5  112.4
       112.2  112.0  111.8  111.6  111.4  111.2  111.0  110.8  110.5  110.3
       110.0  109.8  109.5  109.2  108.9  108.6  108.2  107.9  107.5  107.1
       106.8  106.4  105.9  105.5  105.1  104.6  104.1  103.6  103.1  102.6
       102.0  101.4  100.8  100.2   99.6   98.9   98.2   97.5   96.8   96.0
        95.2   94.4   93.6   92.7   91.9   90.9   90.0   89.0   88.0   87.0
        85.9   84.8   83.7   82.6   81.4   80.2   78.9   77.6   76.3   75.0
   3   115.0  115.0  115.0  114.9  114.9  114.9  114.9  114.9  114.9  114.8
       114.8  114.8  114.8  114.7  114.7  114.6  114.6  114.6  114.5  114.4
       114.4  114.3  114.3  114.2  114.1  114.0  114.0  113.9  113.8  113.7
       113.6  113.5  113.3  113.2  113.1  113.0  112.8  112.7  112.5  112.4
       112.2  112.0  111.8  111.6  111.4  111.2  111.0  110.8  110.5  110.3
       110.0  109.8  109.5  109.2  108.9  108.6  108.2  107.9  107.5  107.1
       106.8  106.4  105.9  105.5  105.1  104.6  104.1  103.6  103.1  102.6
       102.0  101.4  100.8  100.2   99.6   98.9   98.2   97.5   96.8   96.0
        95.2   94.4   93.6   92.7   91.9   90.9   90.0   89.0   88.0   87.0
        85.9   84.8   83.7   82.6   81.4   80.2   78.9   77.6   76.3   75.0
   4   115.0  115.0  115.0  114.9  114.9  114.9  114.9  114.9  114.9  114.8
       114.8  114.8  114.8  114.7  114.7  114.6  114.6  114.6  114.5  114.4
       114.4  114.3  114.3  114.2  114.1  114.0  114.0  113.9  113.8  113.7
       113.6  113.5  113.3  113.2  113.1  113.0  112.8  112.7  112.5  112.4
       112.2  112.0  111.8  111.6  111.4  111.2  111.0  110.8  110.5  110.3
       110.0  109.8  109.5  109.2  108.9  108.6  108.2  107.9  107.5  107.1
       106.8  106.4  105.9  105.5  105.1  104.6  104.1  103.6  103.1  102.6
       102.0  101.4  100.8  100.2   99.6   98.9   98.2   97.5   96.8   96.0
        95.2   94.4   93.6   92.7   91.9   90.9   90.0   89.0   88.0   87.0
        85.9   84.8   83.7   82.6   81.4   80.2   78.9   77.6   76.3   75.0
   5   115.0  115.0  115.0  114.9  114.9  114.9  114.9  114.9  114.9  114.8
       114.8  114.8  114.8  114.7  114.7  114.6  114.6  114.6  114.5  114.4
       114.4  114.3  114.3  114.2  114.1  114.0  114.0  113.9  113.8  113.7
       113.6  113.5  113.3  113.2  113.1  113.0  112.8  112.7  112.5  112.4
       112.2  112.0  111.8  111.6  111.4  111.2  111.0  110.8  110.5  110.3
       110.0  109.8  109.5  109.2  108.9  108.6  108.2  107.9  107.5  107.1
       106.8  106.4  105.9  105.5  105.1  104.6  104.1  103.6  103.1  102.6
       102.0  101.4  100.8  100.2   99.6   98.9   98.2   97.5   96.8   96.0
        95.2   94.4   93.6   92.7   91.9   90.9   90.0   89.0   88.0   87.0
        85.9   84.8   83.7   82.6   81.4   80.2   78.9   77.6   76.3   75.0
   6   115.0  115.0  115.0  114.9  114.9  114.9  114.9  114.9  114.9  114.8
       114.8  114.8  114.8  114.7  114.7  114.6  114.6  114.6  114.5  114.4
       114.4  114.3  114.3  114.2  114.1  114.0  114.0  113.9  113.8  113.7
       113.6  113.5  113.3  113.2  113.1  113.0  112.8  112.7  112.5  112.4
       112.2  112.0  111.8  111.6  111.4  111.2  111.0  110.8  110.5  110.3
       110.0  109.8  109.5  109.2  108.9  108.6  108.2  107.9  107.5  107.1
       106.8  106.4  105.9  105.5  105.1  104.6  104.1  103.6  103.1  102.6
       102.0  101.4  100.8  100.2   99.6   98.9   98.2   97.5   96.8   96.0
        95.2   94.4   93.6   92.7   91.9   90.9   90.0   89.0   88.0   87.0
        85.9   84.8   83.7   82.6   81.4   80.2   78.9   77.6   76.3   75.0
   7   115.0  115.0  115.0  114.9  114.9  114.9  114.9  114.9  114.9  114.8
       114.8  114.8  114.8  114.7  114.7  114.6  114.6  114.6  114.5  114.4
       114.4  114.3  114.3  114.2  114.1  114.0  114.0  113.9  113.8  113.7
       113.6  113.5  113.3  113.2  113.1  113.0  112.8  112.7  112.5  112.4
       112.2  112.0  111.8  111.6  111.4  111.2  111.0  110.8  110.5  110.3
       110.0  109.8  109.5  109.2  108.9  108.6  108.2  107.9  107.5  107.1
       106.8  106.4  105.9  105.5  105.1  104.6  104.1  103.6  103.1  102.6
       102.0  101.4  100.8  100.2   99.6   98.9   98.2   97.5   96.8   96.0
        95.2   94.4   93.6   92.7   91.9   90.9   90.0   89.0   88.0   87.0
        85.9   84.8   83.7   82.6   81.4   80.2   78.9   77.6   76.3   75.0
1
  VOLUMETRIC BUDGET FOR ENTIRE MODEL AT END OF TIME STEP 30 IN STRESS PERIOD  25
  ------------------------------------------------------------------------------

     CUMULATIVE VOLUMES      L**3       RATES FOR THIS TIME STEP      L**3/T
     ------------------                 ------------------------

           IN:                                      IN:
           ---                                      ---
             STORAGE =    11817014.0000               STORAGE =           0.2050
       CONSTANT HEAD =           0.0000         CONSTANT HEAD =           0.0000
     HEAD DEP BOUNDS =           0.0000       HEAD DEP BOUNDS =           0.0000
      STREAM LEAKAGE =    27008990.0000        STREAM LEAKAGE =       3.7141E-02

            TOTAL IN =    38826004.0000              TOTAL IN =           0.2421

          OUT:                                     OUT:
          ----                                     ----
             STORAGE =    15663702.0000               STORAGE =           0.0000
       CONSTANT HEAD =           0.0000         CONSTANT HEAD =           0.0000
     HEAD DEP BOUNDS =    23161810.0000       HEAD DEP BOUNDS =           0.2421
      STREAM LEAKAGE =           0.0000        STREAM LEAKAGE =           0.0000

           TOTAL OUT =    38825512.0000             TOTAL OUT =           0.2421

            IN - OUT =         492.0000              IN - OUT =       1.7926E-05

 PERCENT DISCREPANCY =           0.00     PERCENT DISCREPANCY =           0.01






          TIME SUMMARY AT END OF TIME STEP  30 IN STRESS PERIOD   25
                    SECONDS     MINUTES      HOURS       DAYS        YEARS
                    -----------------------------------------------------------
   TIME STEP LENGTH 2.49961E+05  4166.0      69.434      2.8931     7.92080E-03
 STRESS PERIOD TIME 2.59200E+06  43200.      720.00      30.000     8.21355E-02
         TOTAL TIME 6.47999E+07 1.08000E+06  18000.      750.00      2.0534    
1
1
                            STRESS PERIOD NO.   26, LENGTH =   2592000.    
                            -----------------------------------------------

                              NUMBER OF TIME STEPS =    30

                               MULTIPLIER FOR DELT =     1.100

                            INITIAL TIME STEP SIZE =   15757.40    

 REUSING NON-PARAMETER GHB CELLS FROM LAST STRESS PERIOD

      7 GHB CELLS



 CLASSIFICATION & COUNT OF STREAM SEGMENTS BASED ON SOURCE OF INFLOW:

                HEADWATER     DIVERSION     RECEIVES TRIBUTARY FLOW
                ---------     ---------     -----------------------
                     1              0               0



                    INPUT DATA FOR EACH STREAM SEGMENT
 ---------------------------------------------------------------------------------------------

 SEGMENT    SEG.     INFLOW   OVERLAND   STREAM    STREAM   ICALC  OUTFLOW  DIVERSION PRIORITY
    NO.    LENGTH     RATE     RUNOFF      ET       PPT.    METH.  TO SEG.  FROM SEG.    NO.

      1  2.000E+04 5.120E-01 0.000E+00 0.000E+00 0.000E+00    2        0        0        0


         STREAMBED PROPERTIES AND STREAM DIMENSIONS

 SEGMENT     BED HYD. COND.      BED THICKNESS     ELEV.-TOP OF BED     WIDTH OF STREAM     DEPTH OF STREAM    STREAM ROUGHNESS
    No.     UPPER     LOWER     UPPER     LOWER     UPPER     LOWER     UPPER     LOWER     UPPER     LOWER   CHANNEL      BANK

     1  3.500E-07 3.500E-07                                                                                 3.000E-02 4.000E-02

  EIGHT POINT CROSS-SECTION DATA FOR SEGMENTS WITH ICALC = 2
    X VALUES X VALUES START FROM LEFT SIDE LOOKING DOWNSTREAM

     SEGMENT NO.        X1        X2        X3        X4        X5        X6        X7        X8
            1      0.000E+00 2.000E+00 4.000E+00 6.000E+00 8.000E+00 1.000E+01 1.200E+01 1.400E+01

    Z VALUES ARE RELATIVE TO STREAMBED ELEVATION

     SEGMENT NO.          Z1        Z2        Z3        Z4        Z5        Z6        Z7        Z8
            1      6.000E+00 4.500E+00 3.500E+00 0.000E+00 3.000E-01 3.500E+00 4.500E+00 6.000E+00



 
 SOLVING FOR HEAD 

 NO OUTPUT CONTROL FOR STRESS PERIOD   26   TIME STEP   1
 
 SOLVING FOR HEAD 

 NO OUTPUT CONTROL FOR STRESS PERIOD   26   TIME STEP   2
 
 SOLVING FOR HEAD 

 NO OUTPUT CONTROL FOR STRESS PERIOD   26   TIME STEP   3
 
 SOLVING FOR HEAD 

 NO OUTPUT CONTROL FOR STRESS PERIOD   26   TIME STEP   4
 
 SOLVING FOR HEAD 

 NO OUTPUT CONTROL FOR STRESS PERIOD   26   TIME STEP   5
 
 SOLVING FOR HEAD 

 NO OUTPUT CONTROL FOR STRESS PERIOD   26   TIME STEP   6
 
 SOLVING FOR HEAD 

 NO OUTPUT CONTROL FOR STRESS PERIOD   26   TIME STEP   7
 
 SOLVING FOR HEAD 

 NO OUTPUT CONTROL FOR STRESS PERIOD   26   TIME STEP   8
 
 SOLVING FOR HEAD 

 NO OUTPUT CONTROL FOR STRESS PERIOD   26   TIME STEP   9
 
 SOLVING FOR HEAD 

 NO OUTPUT CONTROL FOR STRESS PERIOD   26   TIME STEP  10
 
 SOLVING FOR HEAD 

 NO OUTPUT CONTROL FOR STRESS PERIOD   26   TIME STEP  11
 
 SOLVING FOR HEAD 

 NO OUTPUT CONTROL FOR STRESS PERIOD   26   TIME STEP  12
 
 SOLVING FOR HEAD 

 NO OUTPUT CONTROL FOR STRESS PERIOD   26   TIME STEP  13
 
 SOLVING FOR HEAD 

 NO OUTPUT CONTROL FOR STRESS PERIOD   26   TIME STEP  14
 
 SOLVING FOR HEAD 

 NO OUTPUT CONTROL FOR STRESS PERIOD   26   TIME STEP  15
 
 SOLVING FOR HEAD 

 NO OUTPUT CONTROL FOR STRESS PERIOD   26   TIME STEP  16
 
 SOLVING FOR HEAD 

 NO OUTPUT CONTROL FOR STRESS PERIOD   26   TIME STEP  17
 
 SOLVING FOR HEAD 

 NO OUTPUT CONTROL FOR STRESS PERIOD   26   TIME STEP  18
 
 SOLVING FOR HEAD 

 NO OUTPUT CONTROL FOR STRESS PERIOD   26   TIME STEP  19
 
 SOLVING FOR HEAD 

 NO OUTPUT CONTROL FOR STRESS PERIOD   26   TIME STEP  20
 
 SOLVING FOR HEAD 

 NO OUTPUT CONTROL FOR STRESS PERIOD   26   TIME STEP  21
 
 SOLVING FOR HEAD 

 NO OUTPUT CONTROL FOR STRESS PERIOD   26   TIME STEP  22
 
 SOLVING FOR HEAD 

 NO OUTPUT CONTROL FOR STRESS PERIOD   26   TIME STEP  23
 
 SOLVING FOR HEAD 

 NO OUTPUT CONTROL FOR STRESS PERIOD   26   TIME STEP  24
 
 SOLVING FOR HEAD 

 NO OUTPUT CONTROL FOR STRESS PERIOD   26   TIME STEP  25
 
 SOLVING FOR HEAD 

 NO OUTPUT CONTROL FOR STRESS PERIOD   26   TIME STEP  26
 
 SOLVING FOR HEAD 

 NO OUTPUT CONTROL FOR STRESS PERIOD   26   TIME STEP  27
 
 SOLVING FOR HEAD 

 NO OUTPUT CONTROL FOR STRESS PERIOD   26   TIME STEP  28
 
 SOLVING FOR HEAD 

 NO OUTPUT CONTROL FOR STRESS PERIOD   26   TIME STEP  29
 
 SOLVING FOR HEAD 

 NO OUTPUT CONTROL FOR STRESS PERIOD   26   TIME STEP  30
1
  VOLUMETRIC BUDGET FOR UNSATURATED ZONE BENEATH STREAMS AT END OF TIME STEP  30 STRESS PERIOD  26
  ------------------------------------------------------------------------------------------------

    CUMULATIVE VOLUMES             L**3    RATES FOR THIS TIME STEP         L**3/T
    ------------------                     ------------------------


          STREAM LOSS =     27417556.0000            STREAM LOSS =        4.1901E-02
    CHANGE IN STORAGE =       305074.4062      CHANGE IN STORAGE =       -1.1949E-03
       RECHARGE TO GW =     27111986.0000         RECHARGE TO GW =        4.3096E-02

             TOTAL IN =     27417556.0000               TOTAL IN =        4.3096E-02

            TOTAL OUT =     27417060.0000              TOTAL OUT =        4.3096E-02

             IN - OUT =          496.0000               IN - OUT =        2.2934E-08

  PERCENT DISCREPANCY =            0.00      PERCENT DISCREPANCY =             0.00



1
  VOLUMETRIC BUDGET FOR ENTIRE MODEL AT END OF TIME STEP 30 IN STRESS PERIOD  26
  ------------------------------------------------------------------------------

     CUMULATIVE VOLUMES      L**3       RATES FOR THIS TIME STEP      L**3/T
     ------------------                 ------------------------

           IN:                                      IN:
           ---                                      ---
             STORAGE =    12329765.0000               STORAGE =           0.1907
       CONSTANT HEAD =           0.0000         CONSTANT HEAD =           0.0000
     HEAD DEP BOUNDS =           0.0000       HEAD DEP BOUNDS =           0.0000
      STREAM LEAKAGE =    27111924.0000        STREAM LEAKAGE =       4.3096E-02

            TOTAL IN =    39441688.0000              TOTAL IN =           0.2338

          OUT:                                     OUT:
          ----                                     ----
             STORAGE =    15663702.0000               STORAGE =           0.0000
       CONSTANT HEAD =           0.0000         CONSTANT HEAD =           0.0000
     HEAD DEP BOUNDS =    23777516.0000       HEAD DEP BOUNDS =           0.2338
      STREAM LEAKAGE =           0.0000        STREAM LEAKAGE =           0.0000

           TOTAL OUT =    39441216.0000             TOTAL OUT =           0.2338

            IN - OUT =         472.0000              IN - OUT =      -6.4969E-06

 PERCENT DISCREPANCY =           0.00     PERCENT DISCREPANCY =           0.00






          TIME SUMMARY AT END OF TIME STEP  30 IN STRESS PERIOD   26
                    SECONDS     MINUTES      HOURS       DAYS        YEARS
                    -----------------------------------------------------------
   TIME STEP LENGTH 2.49961E+05  4166.0      69.434      2.8931     7.92080E-03
 STRESS PERIOD TIME 2.59200E+06  43200.      720.00      30.000     8.21355E-02
         TOTAL TIME 6.73919E+07 1.12320E+06  18720.      780.00      2.1355    
1
1
                            STRESS PERIOD NO.   27, LENGTH =   2592000.    
                            -----------------------------------------------

                              NUMBER OF TIME STEPS =    30

                               MULTIPLIER FOR DELT =     1.100

                            INITIAL TIME STEP SIZE =   15757.40    

 REUSING NON-PARAMETER GHB CELLS FROM LAST STRESS PERIOD

      7 GHB CELLS



 CLASSIFICATION & COUNT OF STREAM SEGMENTS BASED ON SOURCE OF INFLOW:

                HEADWATER     DIVERSION     RECEIVES TRIBUTARY FLOW
                ---------     ---------     -----------------------
                     1              0               0



                    INPUT DATA FOR EACH STREAM SEGMENT
 ---------------------------------------------------------------------------------------------

 SEGMENT    SEG.     INFLOW   OVERLAND   STREAM    STREAM   ICALC  OUTFLOW  DIVERSION PRIORITY
    NO.    LENGTH     RATE     RUNOFF      ET       PPT.    METH.  TO SEG.  FROM SEG.    NO.

      1  2.000E+04 7.500E-01 0.000E+00 0.000E+00 0.000E+00    2        0        0        0


         STREAMBED PROPERTIES AND STREAM DIMENSIONS

 SEGMENT     BED HYD. COND.      BED THICKNESS     ELEV.-TOP OF BED     WIDTH OF STREAM     DEPTH OF STREAM    STREAM ROUGHNESS
    No.     UPPER     LOWER     UPPER     LOWER     UPPER     LOWER     UPPER     LOWER     UPPER     LOWER   CHANNEL      BANK

     1  3.500E-07 3.500E-07                                                                                 3.000E-02 4.000E-02

  EIGHT POINT CROSS-SECTION DATA FOR SEGMENTS WITH ICALC = 2
    X VALUES X VALUES START FROM LEFT SIDE LOOKING DOWNSTREAM

     SEGMENT NO.        X1        X2        X3        X4        X5        X6        X7        X8
            1      0.000E+00 2.000E+00 4.000E+00 6.000E+00 8.000E+00 1.000E+01 1.200E+01 1.400E+01

    Z VALUES ARE RELATIVE TO STREAMBED ELEVATION

     SEGMENT NO.          Z1        Z2        Z3        Z4        Z5        Z6        Z7        Z8
            1      6.000E+00 4.500E+00 3.500E+00 0.000E+00 3.000E-01 3.500E+00 4.500E+00 6.000E+00



 
 SOLVING FOR HEAD 

 NO OUTPUT CONTROL FOR STRESS PERIOD   27   TIME STEP   1
 
 SOLVING FOR HEAD 

 NO OUTPUT CONTROL FOR STRESS PERIOD   27   TIME STEP   2
 
 SOLVING FOR HEAD 

 NO OUTPUT CONTROL FOR STRESS PERIOD   27   TIME STEP   3
 
 SOLVING FOR HEAD 

 NO OUTPUT CONTROL FOR STRESS PERIOD   27   TIME STEP   4
 
 SOLVING FOR HEAD 

 NO OUTPUT CONTROL FOR STRESS PERIOD   27   TIME STEP   5
 
 SOLVING FOR HEAD 

 NO OUTPUT CONTROL FOR STRESS PERIOD   27   TIME STEP   6
 
 SOLVING FOR HEAD 

 NO OUTPUT CONTROL FOR STRESS PERIOD   27   TIME STEP   7
 
 SOLVING FOR HEAD 

 NO OUTPUT CONTROL FOR STRESS PERIOD   27   TIME STEP   8
 
 SOLVING FOR HEAD 

 NO OUTPUT CONTROL FOR STRESS PERIOD   27   TIME STEP   9
 
 SOLVING FOR HEAD 

 NO OUTPUT CONTROL FOR STRESS PERIOD   27   TIME STEP  10
 
 SOLVING FOR HEAD 

 NO OUTPUT CONTROL FOR STRESS PERIOD   27   TIME STEP  11
 
 SOLVING FOR HEAD 

 NO OUTPUT CONTROL FOR STRESS PERIOD   27   TIME STEP  12
 
 SOLVING FOR HEAD 

 NO OUTPUT CONTROL FOR STRESS PERIOD   27   TIME STEP  13
 
 SOLVING FOR HEAD 

 NO OUTPUT CONTROL FOR STRESS PERIOD   27   TIME STEP  14
 
 SOLVING FOR HEAD 

 NO OUTPUT CONTROL FOR STRESS PERIOD   27   TIME STEP  15
 
 SOLVING FOR HEAD 

 NO OUTPUT CONTROL FOR STRESS PERIOD   27   TIME STEP  16
 
 SOLVING FOR HEAD 

 NO OUTPUT CONTROL FOR STRESS PERIOD   27   TIME STEP  17
 
 SOLVING FOR HEAD 

 NO OUTPUT CONTROL FOR STRESS PERIOD   27   TIME STEP  18
 
 SOLVING FOR HEAD 

 NO OUTPUT CONTROL FOR STRESS PERIOD   27   TIME STEP  19
 
 SOLVING FOR HEAD 

 NO OUTPUT CONTROL FOR STRESS PERIOD   27   TIME STEP  20
 
 SOLVING FOR HEAD 

 NO OUTPUT CONTROL FOR STRESS PERIOD   27   TIME STEP  21
 
 SOLVING FOR HEAD 

 NO OUTPUT CONTROL FOR STRESS PERIOD   27   TIME STEP  22
 
 SOLVING FOR HEAD 

 NO OUTPUT CONTROL FOR STRESS PERIOD   27   TIME STEP  23
 
 SOLVING FOR HEAD 

 NO OUTPUT CONTROL FOR STRESS PERIOD   27   TIME STEP  24
 
 SOLVING FOR HEAD 

 NO OUTPUT CONTROL FOR STRESS PERIOD   27   TIME STEP  25
 
 SOLVING FOR HEAD 

 NO OUTPUT CONTROL FOR STRESS PERIOD   27   TIME STEP  26
 
 SOLVING FOR HEAD 

 NO OUTPUT CONTROL FOR STRESS PERIOD   27   TIME STEP  27
 
 SOLVING FOR HEAD 

 NO OUTPUT CONTROL FOR STRESS PERIOD   27   TIME STEP  28
 
 SOLVING FOR HEAD 

 NO OUTPUT CONTROL FOR STRESS PERIOD   27   TIME STEP  29
 
 SOLVING FOR HEAD 

 NO OUTPUT CONTROL FOR STRESS PERIOD   27   TIME STEP  30
1
  VOLUMETRIC BUDGET FOR UNSATURATED ZONE BENEATH STREAMS AT END OF TIME STEP  30 STRESS PERIOD  27
  ------------------------------------------------------------------------------------------------

    CUMULATIVE VOLUMES             L**3    RATES FOR THIS TIME STEP         L**3/T
    ------------------                     ------------------------


          STREAM LOSS =     27546900.0000            STREAM LOSS =        4.9990E-02
    CHANGE IN STORAGE =       312158.2188      CHANGE IN STORAGE =       -1.1726E-03
       RECHARGE TO GW =     27234452.0000         RECHARGE TO GW =        5.1162E-02

             TOTAL IN =     27546900.0000               TOTAL IN =        5.1162E-02

            TOTAL OUT =     27546610.0000              TOTAL OUT =        5.1162E-02

             IN - OUT =          290.0000               IN - OUT =        6.0536E-09

  PERCENT DISCREPANCY =            0.00      PERCENT DISCREPANCY =             0.00



1
  VOLUMETRIC BUDGET FOR ENTIRE MODEL AT END OF TIME STEP 30 IN STRESS PERIOD  27
  ------------------------------------------------------------------------------

     CUMULATIVE VOLUMES      L**3       RATES FOR THIS TIME STEP      L**3/T
     ------------------                 ------------------------

           IN:                                      IN:
           ---                                      ---
             STORAGE =    12804605.0000               STORAGE =           0.1764
       CONSTANT HEAD =           0.0000         CONSTANT HEAD =           0.0000
     HEAD DEP BOUNDS =           0.0000       HEAD DEP BOUNDS =           0.0000
      STREAM LEAKAGE =    27234406.0000        STREAM LEAKAGE =       5.1162E-02

            TOTAL IN =    40039012.0000              TOTAL IN =           0.2276

          OUT:                                     OUT:
          ----                                     ----
             STORAGE =    15663702.0000               STORAGE =           0.0000
       CONSTANT HEAD =           0.0000         CONSTANT HEAD =           0.0000
     HEAD DEP BOUNDS =    24374812.0000       HEAD DEP BOUNDS =           0.2276
      STREAM LEAKAGE =           0.0000        STREAM LEAKAGE =           0.0000

           TOTAL OUT =    40038512.0000             TOTAL OUT =           0.2276

            IN - OUT =         500.0000              IN - OUT =      -3.4884E-05

 PERCENT DISCREPANCY =           0.00     PERCENT DISCREPANCY =          -0.02






          TIME SUMMARY AT END OF TIME STEP  30 IN STRESS PERIOD   27
                    SECONDS     MINUTES      HOURS       DAYS        YEARS
                    -----------------------------------------------------------
   TIME STEP LENGTH 2.49961E+05  4166.0      69.434      2.8931     7.92080E-03
 STRESS PERIOD TIME 2.59200E+06  43200.      720.00      30.000     8.21355E-02
         TOTAL TIME 6.99840E+07 1.16640E+06  19440.      810.00      2.2177    
1
1
                            STRESS PERIOD NO.   28, LENGTH =   2592000.    
                            -----------------------------------------------

                              NUMBER OF TIME STEPS =    30

                               MULTIPLIER FOR DELT =     1.100

                            INITIAL TIME STEP SIZE =   15757.40    

 REUSING NON-PARAMETER GHB CELLS FROM LAST STRESS PERIOD

      7 GHB CELLS



 CLASSIFICATION & COUNT OF STREAM SEGMENTS BASED ON SOURCE OF INFLOW:

                HEADWATER     DIVERSION     RECEIVES TRIBUTARY FLOW
                ---------     ---------     -----------------------
                     1              0               0



                    INPUT DATA FOR EACH STREAM SEGMENT
 ---------------------------------------------------------------------------------------------

 SEGMENT    SEG.     INFLOW   OVERLAND   STREAM    STREAM   ICALC  OUTFLOW  DIVERSION PRIORITY
    NO.    LENGTH     RATE     RUNOFF      ET       PPT.    METH.  TO SEG.  FROM SEG.    NO.

      1  2.000E+04 1.730E+00 0.000E+00 0.000E+00 0.000E+00    2        0        0        0


         STREAMBED PROPERTIES AND STREAM DIMENSIONS

 SEGMENT     BED HYD. COND.      BED THICKNESS     ELEV.-TOP OF BED     WIDTH OF STREAM     DEPTH OF STREAM    STREAM ROUGHNESS
    No.     UPPER     LOWER     UPPER     LOWER     UPPER     LOWER     UPPER     LOWER     UPPER     LOWER   CHANNEL      BANK

     1  3.500E-07 3.500E-07                                                                                 3.000E-02 4.000E-02

  EIGHT POINT CROSS-SECTION DATA FOR SEGMENTS WITH ICALC = 2
    X VALUES X VALUES START FROM LEFT SIDE LOOKING DOWNSTREAM

     SEGMENT NO.        X1        X2        X3        X4        X5        X6        X7        X8
            1      0.000E+00 2.000E+00 4.000E+00 6.000E+00 8.000E+00 1.000E+01 1.200E+01 1.400E+01

    Z VALUES ARE RELATIVE TO STREAMBED ELEVATION

     SEGMENT NO.          Z1        Z2        Z3        Z4        Z5        Z6        Z7        Z8
            1      6.000E+00 4.500E+00 3.500E+00 0.000E+00 3.000E-01 3.500E+00 4.500E+00 6.000E+00



 
 SOLVING FOR HEAD 

 NO OUTPUT CONTROL FOR STRESS PERIOD   28   TIME STEP   1
 
 SOLVING FOR HEAD 

 NO OUTPUT CONTROL FOR STRESS PERIOD   28   TIME STEP   2
 
 SOLVING FOR HEAD 

 NO OUTPUT CONTROL FOR STRESS PERIOD   28   TIME STEP   3
 
 SOLVING FOR HEAD 

 NO OUTPUT CONTROL FOR STRESS PERIOD   28   TIME STEP   4
 
 SOLVING FOR HEAD 

 NO OUTPUT CONTROL FOR STRESS PERIOD   28   TIME STEP   5
 
 SOLVING FOR HEAD 

 NO OUTPUT CONTROL FOR STRESS PERIOD   28   TIME STEP   6
 
 SOLVING FOR HEAD 

 NO OUTPUT CONTROL FOR STRESS PERIOD   28   TIME STEP   7
 
 SOLVING FOR HEAD 

 NO OUTPUT CONTROL FOR STRESS PERIOD   28   TIME STEP   8
 
 SOLVING FOR HEAD 

 NO OUTPUT CONTROL FOR STRESS PERIOD   28   TIME STEP   9
 
 SOLVING FOR HEAD 

 NO OUTPUT CONTROL FOR STRESS PERIOD   28   TIME STEP  10
 
 SOLVING FOR HEAD 

 NO OUTPUT CONTROL FOR STRESS PERIOD   28   TIME STEP  11
 
 SOLVING FOR HEAD 

 NO OUTPUT CONTROL FOR STRESS PERIOD   28   TIME STEP  12
 
 SOLVING FOR HEAD 

 NO OUTPUT CONTROL FOR STRESS PERIOD   28   TIME STEP  13
 
 SOLVING FOR HEAD 

 NO OUTPUT CONTROL FOR STRESS PERIOD   28   TIME STEP  14
 
 SOLVING FOR HEAD 

 NO OUTPUT CONTROL FOR STRESS PERIOD   28   TIME STEP  15
 
 SOLVING FOR HEAD 

 NO OUTPUT CONTROL FOR STRESS PERIOD   28   TIME STEP  16
 
 SOLVING FOR HEAD 

 NO OUTPUT CONTROL FOR STRESS PERIOD   28   TIME STEP  17
 
 SOLVING FOR HEAD 

 NO OUTPUT CONTROL FOR STRESS PERIOD   28   TIME STEP  18
 
 SOLVING FOR HEAD 

 NO OUTPUT CONTROL FOR STRESS PERIOD   28   TIME STEP  19
 
 SOLVING FOR HEAD 

 NO OUTPUT CONTROL FOR STRESS PERIOD   28   TIME STEP  20
 
 SOLVING FOR HEAD 

 NO OUTPUT CONTROL FOR STRESS PERIOD   28   TIME STEP  21
 
 SOLVING FOR HEAD 

 NO OUTPUT CONTROL FOR STRESS PERIOD   28   TIME STEP  22
 
 SOLVING FOR HEAD 

 NO OUTPUT CONTROL FOR STRESS PERIOD   28   TIME STEP  23
 
 SOLVING FOR HEAD 

 NO OUTPUT CONTROL FOR STRESS PERIOD   28   TIME STEP  24
 
 SOLVING FOR HEAD 

 NO OUTPUT CONTROL FOR STRESS PERIOD   28   TIME STEP  25
 
 SOLVING FOR HEAD 

 NO OUTPUT CONTROL FOR STRESS PERIOD   28   TIME STEP  26
 
 SOLVING FOR HEAD 

 NO OUTPUT CONTROL FOR STRESS PERIOD   28   TIME STEP  27
 
 SOLVING FOR HEAD 

 NO OUTPUT CONTROL FOR STRESS PERIOD   28   TIME STEP  28
 
 SOLVING FOR HEAD 

 NO OUTPUT CONTROL FOR STRESS PERIOD   28   TIME STEP  29
 
 SOLVING FOR HEAD 

 NO OUTPUT CONTROL FOR STRESS PERIOD   28   TIME STEP  30
1
  VOLUMETRIC BUDGET FOR UNSATURATED ZONE BENEATH STREAMS AT END OF TIME STEP  30 STRESS PERIOD  28
  ------------------------------------------------------------------------------------------------

    CUMULATIVE VOLUMES             L**3    RATES FOR THIS TIME STEP         L**3/T
    ------------------                     ------------------------


          STREAM LOSS =     27754504.0000            STREAM LOSS =        8.0156E-02
    CHANGE IN STORAGE =       339418.0000      CHANGE IN STORAGE =       -1.1413E-03
       RECHARGE TO GW =     27414920.0000         RECHARGE TO GW =        8.1297E-02

             TOTAL IN =     27754504.0000               TOTAL IN =        8.1297E-02

            TOTAL OUT =     27754338.0000              TOTAL OUT =        8.1297E-02

             IN - OUT =          166.0000               IN - OUT =        8.3819E-09

  PERCENT DISCREPANCY =            0.00      PERCENT DISCREPANCY =             0.00



1
  VOLUMETRIC BUDGET FOR ENTIRE MODEL AT END OF TIME STEP 30 IN STRESS PERIOD  28
  ------------------------------------------------------------------------------

     CUMULATIVE VOLUMES      L**3       RATES FOR THIS TIME STEP      L**3/T
     ------------------                 ------------------------

           IN:                                      IN:
           ---                                      ---
             STORAGE =    13207311.0000               STORAGE =           0.1419
       CONSTANT HEAD =           0.0000         CONSTANT HEAD =           0.0000
     HEAD DEP BOUNDS =           0.0000       HEAD DEP BOUNDS =           0.0000
      STREAM LEAKAGE =    27414910.0000        STREAM LEAKAGE =       8.1297E-02

            TOTAL IN =    40622220.0000              TOTAL IN =           0.2232

          OUT:                                     OUT:
          ----                                     ----
             STORAGE =    15663797.0000               STORAGE =       1.3313E-05
       CONSTANT HEAD =           0.0000         CONSTANT HEAD =           0.0000
     HEAD DEP BOUNDS =    24957904.0000       HEAD DEP BOUNDS =           0.2231
      STREAM LEAKAGE =           0.0000        STREAM LEAKAGE =           0.0000

           TOTAL OUT =    40621700.0000             TOTAL OUT =           0.2232

            IN - OUT =         520.0000              IN - OUT =       1.4782E-05

 PERCENT DISCREPANCY =           0.00     PERCENT DISCREPANCY =           0.01






          TIME SUMMARY AT END OF TIME STEP  30 IN STRESS PERIOD   28
                    SECONDS     MINUTES      HOURS       DAYS        YEARS
                    -----------------------------------------------------------
   TIME STEP LENGTH 2.49961E+05  4166.0      69.434      2.8931     7.92080E-03
 STRESS PERIOD TIME 2.59200E+06  43200.      720.00      30.000     8.21355E-02
         TOTAL TIME 7.25760E+07 1.20960E+06  20160.      840.00      2.2998    
1
1
                            STRESS PERIOD NO.   29, LENGTH =   2592000.    
                            -----------------------------------------------

                              NUMBER OF TIME STEPS =    30

                               MULTIPLIER FOR DELT =     1.100

                            INITIAL TIME STEP SIZE =   15757.40    

 REUSING NON-PARAMETER GHB CELLS FROM LAST STRESS PERIOD

      7 GHB CELLS



 CLASSIFICATION & COUNT OF STREAM SEGMENTS BASED ON SOURCE OF INFLOW:

                HEADWATER     DIVERSION     RECEIVES TRIBUTARY FLOW
                ---------     ---------     -----------------------
                     1              0               0



                    INPUT DATA FOR EACH STREAM SEGMENT
 ---------------------------------------------------------------------------------------------

 SEGMENT    SEG.     INFLOW   OVERLAND   STREAM    STREAM   ICALC  OUTFLOW  DIVERSION PRIORITY
    NO.    LENGTH     RATE     RUNOFF      ET       PPT.    METH.  TO SEG.  FROM SEG.    NO.

      1  2.000E+04 5.680E+00 0.000E+00 0.000E+00 0.000E+00    2        0        0        0


         STREAMBED PROPERTIES AND STREAM DIMENSIONS

 SEGMENT     BED HYD. COND.      BED THICKNESS     ELEV.-TOP OF BED     WIDTH OF STREAM     DEPTH OF STREAM    STREAM ROUGHNESS
    No.     UPPER     LOWER     UPPER     LOWER     UPPER     LOWER     UPPER     LOWER     UPPER     LOWER   CHANNEL      BANK

     1  3.500E-07 3.500E-07                                                                                 3.000E-02 4.000E-02

  EIGHT POINT CROSS-SECTION DATA FOR SEGMENTS WITH ICALC = 2
    X VALUES X VALUES START FROM LEFT SIDE LOOKING DOWNSTREAM

     SEGMENT NO.        X1        X2        X3        X4        X5        X6        X7        X8
            1      0.000E+00 2.000E+00 4.000E+00 6.000E+00 8.000E+00 1.000E+01 1.200E+01 1.400E+01

    Z VALUES ARE RELATIVE TO STREAMBED ELEVATION

     SEGMENT NO.          Z1        Z2        Z3        Z4        Z5        Z6        Z7        Z8
            1      6.000E+00 4.500E+00 3.500E+00 0.000E+00 3.000E-01 3.500E+00 4.500E+00 6.000E+00



 
 SOLVING FOR HEAD 

 NO OUTPUT CONTROL FOR STRESS PERIOD   29   TIME STEP   1
 
 SOLVING FOR HEAD 

 NO OUTPUT CONTROL FOR STRESS PERIOD   29   TIME STEP   2
 
 SOLVING FOR HEAD 

 NO OUTPUT CONTROL FOR STRESS PERIOD   29   TIME STEP   3
 
 SOLVING FOR HEAD 

 NO OUTPUT CONTROL FOR STRESS PERIOD   29   TIME STEP   4
 
 SOLVING FOR HEAD 

 NO OUTPUT CONTROL FOR STRESS PERIOD   29   TIME STEP   5
 
 SOLVING FOR HEAD 

 NO OUTPUT CONTROL FOR STRESS PERIOD   29   TIME STEP   6
 
 SOLVING FOR HEAD 

 NO OUTPUT CONTROL FOR STRESS PERIOD   29   TIME STEP   7
 
 SOLVING FOR HEAD 

 NO OUTPUT CONTROL FOR STRESS PERIOD   29   TIME STEP   8
 
 SOLVING FOR HEAD 

 NO OUTPUT CONTROL FOR STRESS PERIOD   29   TIME STEP   9
 
 SOLVING FOR HEAD 

 NO OUTPUT CONTROL FOR STRESS PERIOD   29   TIME STEP  10
 
 SOLVING FOR HEAD 

 NO OUTPUT CONTROL FOR STRESS PERIOD   29   TIME STEP  11
 
 SOLVING FOR HEAD 

 NO OUTPUT CONTROL FOR STRESS PERIOD   29   TIME STEP  12
 
 SOLVING FOR HEAD 

 NO OUTPUT CONTROL FOR STRESS PERIOD   29   TIME STEP  13
 
 SOLVING FOR HEAD 

 NO OUTPUT CONTROL FOR STRESS PERIOD   29   TIME STEP  14
 
 SOLVING FOR HEAD 

 NO OUTPUT CONTROL FOR STRESS PERIOD   29   TIME STEP  15
 
 SOLVING FOR HEAD 

 NO OUTPUT CONTROL FOR STRESS PERIOD   29   TIME STEP  16
 
 SOLVING FOR HEAD 

 NO OUTPUT CONTROL FOR STRESS PERIOD   29   TIME STEP  17
 
 SOLVING FOR HEAD 

 NO OUTPUT CONTROL FOR STRESS PERIOD   29   TIME STEP  18
 
 SOLVING FOR HEAD 

 NO OUTPUT CONTROL FOR STRESS PERIOD   29   TIME STEP  19
 
 SOLVING FOR HEAD 

 NO OUTPUT CONTROL FOR STRESS PERIOD   29   TIME STEP  20
 
 SOLVING FOR HEAD 

 NO OUTPUT CONTROL FOR STRESS PERIOD   29   TIME STEP  21
 
 SOLVING FOR HEAD 

 NO OUTPUT CONTROL FOR STRESS PERIOD   29   TIME STEP  22
 
 SOLVING FOR HEAD 

 NO OUTPUT CONTROL FOR STRESS PERIOD   29   TIME STEP  23
 
 SOLVING FOR HEAD 

 NO OUTPUT CONTROL FOR STRESS PERIOD   29   TIME STEP  24
 
 SOLVING FOR HEAD 

 NO OUTPUT CONTROL FOR STRESS PERIOD   29   TIME STEP  25
 
 SOLVING FOR HEAD 

 NO OUTPUT CONTROL FOR STRESS PERIOD   29   TIME STEP  26
 
 SOLVING FOR HEAD 

 NO OUTPUT CONTROL FOR STRESS PERIOD   29   TIME STEP  27
 
 SOLVING FOR HEAD 

 NO OUTPUT CONTROL FOR STRESS PERIOD   29   TIME STEP  28
 
 SOLVING FOR HEAD 

 NO OUTPUT CONTROL FOR STRESS PERIOD   29   TIME STEP  29
 
 SOLVING FOR HEAD 

 NO OUTPUT CONTROL FOR STRESS PERIOD   29   TIME STEP  30
1
  VOLUMETRIC BUDGET FOR UNSATURATED ZONE BENEATH STREAMS AT END OF TIME STEP  30 STRESS PERIOD  29
  ------------------------------------------------------------------------------------------------

    CUMULATIVE VOLUMES             L**3    RATES FOR THIS TIME STEP         L**3/T
    ------------------                     ------------------------


          STREAM LOSS =     28238650.0000            STREAM LOSS =            0.1868
    CHANGE IN STORAGE =       401603.7812      CHANGE IN STORAGE =       -1.5996E-03
       RECHARGE TO GW =     27836854.0000         RECHARGE TO GW =            0.1883

             TOTAL IN =     28238650.0000               TOTAL IN =            0.1883

            TOTAL OUT =     28238458.0000              TOTAL OUT =            0.1883

             IN - OUT =          192.0000               IN - OUT =        2.2468E-08

  PERCENT DISCREPANCY =            0.00      PERCENT DISCREPANCY =             0.00



1
  VOLUMETRIC BUDGET FOR ENTIRE MODEL AT END OF TIME STEP 30 IN STRESS PERIOD  29
  ------------------------------------------------------------------------------

     CUMULATIVE VOLUMES      L**3       RATES FOR THIS TIME STEP      L**3/T
     ------------------                 ------------------------

           IN:                                      IN:
           ---                                      ---
             STORAGE =    13413952.0000               STORAGE =       6.0426E-02
       CONSTANT HEAD =           0.0000         CONSTANT HEAD =           0.0000
     HEAD DEP BOUNDS =           0.0000       HEAD DEP BOUNDS =           0.0000
      STREAM LEAKAGE =    27836778.0000        STREAM LEAKAGE =           0.1883

            TOTAL IN =    41250728.0000              TOTAL IN =           0.2488

          OUT:                                     OUT:
          ----                                     ----
             STORAGE =    15713613.0000               STORAGE =       2.4721E-02
       CONSTANT HEAD =           0.0000         CONSTANT HEAD =           0.0000
     HEAD DEP BOUNDS =    25536518.0000       HEAD DEP BOUNDS =           0.2240
      STREAM LEAKAGE =           0.0000        STREAM LEAKAGE =           0.0000

           TOTAL OUT =    41250132.0000             TOTAL OUT =           0.2487

            IN - OUT =         596.0000              IN - OUT =       9.2715E-05

 PERCENT DISCREPANCY =           0.00     PERCENT DISCREPANCY =           0.04






          TIME SUMMARY AT END OF TIME STEP  30 IN STRESS PERIOD   29
                    SECONDS     MINUTES      HOURS       DAYS        YEARS
                    -----------------------------------------------------------
   TIME STEP LENGTH 2.49961E+05  4166.0      69.434      2.8931     7.92080E-03
 STRESS PERIOD TIME 2.59200E+06  43200.      720.00      30.000     8.21355E-02
         TOTAL TIME 7.51680E+07 1.25280E+06  20880.      870.00      2.3819    
1
1
                            STRESS PERIOD NO.   30, LENGTH =   2592000.    
                            -----------------------------------------------

                              NUMBER OF TIME STEPS =    30

                               MULTIPLIER FOR DELT =     1.100

                            INITIAL TIME STEP SIZE =   15757.40    

 REUSING NON-PARAMETER GHB CELLS FROM LAST STRESS PERIOD

      7 GHB CELLS



 CLASSIFICATION & COUNT OF STREAM SEGMENTS BASED ON SOURCE OF INFLOW:

                HEADWATER     DIVERSION     RECEIVES TRIBUTARY FLOW
                ---------     ---------     -----------------------
                     1              0               0



                    INPUT DATA FOR EACH STREAM SEGMENT
 ---------------------------------------------------------------------------------------------

 SEGMENT    SEG.     INFLOW   OVERLAND   STREAM    STREAM   ICALC  OUTFLOW  DIVERSION PRIORITY
    NO.    LENGTH     RATE     RUNOFF      ET       PPT.    METH.  TO SEG.  FROM SEG.    NO.

      1  2.000E+04 7.710E+00 0.000E+00 0.000E+00 0.000E+00    2        0        0        0


         STREAMBED PROPERTIES AND STREAM DIMENSIONS

 SEGMENT     BED HYD. COND.      BED THICKNESS     ELEV.-TOP OF BED     WIDTH OF STREAM     DEPTH OF STREAM    STREAM ROUGHNESS
    No.     UPPER     LOWER     UPPER     LOWER     UPPER     LOWER     UPPER     LOWER     UPPER     LOWER   CHANNEL      BANK

     1  3.500E-07 3.500E-07                                                                                 3.000E-02 4.000E-02

  EIGHT POINT CROSS-SECTION DATA FOR SEGMENTS WITH ICALC = 2
    X VALUES X VALUES START FROM LEFT SIDE LOOKING DOWNSTREAM

     SEGMENT NO.        X1        X2        X3        X4        X5        X6        X7        X8
            1      0.000E+00 2.000E+00 4.000E+00 6.000E+00 8.000E+00 1.000E+01 1.200E+01 1.400E+01

    Z VALUES ARE RELATIVE TO STREAMBED ELEVATION

     SEGMENT NO.          Z1        Z2        Z3        Z4        Z5        Z6        Z7        Z8
            1      6.000E+00 4.500E+00 3.500E+00 0.000E+00 3.000E-01 3.500E+00 4.500E+00 6.000E+00



 
 SOLVING FOR HEAD 

 NO OUTPUT CONTROL FOR STRESS PERIOD   30   TIME STEP   1
 
 SOLVING FOR HEAD 

 NO OUTPUT CONTROL FOR STRESS PERIOD   30   TIME STEP   2
 
 SOLVING FOR HEAD 

 NO OUTPUT CONTROL FOR STRESS PERIOD   30   TIME STEP   3
 
 SOLVING FOR HEAD 

 NO OUTPUT CONTROL FOR STRESS PERIOD   30   TIME STEP   4
 
 SOLVING FOR HEAD 

 NO OUTPUT CONTROL FOR STRESS PERIOD   30   TIME STEP   5
 
 SOLVING FOR HEAD 

 NO OUTPUT CONTROL FOR STRESS PERIOD   30   TIME STEP   6
 
 SOLVING FOR HEAD 

 NO OUTPUT CONTROL FOR STRESS PERIOD   30   TIME STEP   7
 
 SOLVING FOR HEAD 

 NO OUTPUT CONTROL FOR STRESS PERIOD   30   TIME STEP   8
 
 SOLVING FOR HEAD 

 NO OUTPUT CONTROL FOR STRESS PERIOD   30   TIME STEP   9
 
 SOLVING FOR HEAD 

 NO OUTPUT CONTROL FOR STRESS PERIOD   30   TIME STEP  10
 
 SOLVING FOR HEAD 

 NO OUTPUT CONTROL FOR STRESS PERIOD   30   TIME STEP  11
 
 SOLVING FOR HEAD 

 NO OUTPUT CONTROL FOR STRESS PERIOD   30   TIME STEP  12
 
 SOLVING FOR HEAD 

 NO OUTPUT CONTROL FOR STRESS PERIOD   30   TIME STEP  13
 
 SOLVING FOR HEAD 

 NO OUTPUT CONTROL FOR STRESS PERIOD   30   TIME STEP  14
 
 SOLVING FOR HEAD 

 NO OUTPUT CONTROL FOR STRESS PERIOD   30   TIME STEP  15
 
 SOLVING FOR HEAD 

 NO OUTPUT CONTROL FOR STRESS PERIOD   30   TIME STEP  16
 
 SOLVING FOR HEAD 

 NO OUTPUT CONTROL FOR STRESS PERIOD   30   TIME STEP  17
 
 SOLVING FOR HEAD 

 NO OUTPUT CONTROL FOR STRESS PERIOD   30   TIME STEP  18
 
 SOLVING FOR HEAD 

 NO OUTPUT CONTROL FOR STRESS PERIOD   30   TIME STEP  19
 
 SOLVING FOR HEAD 

 NO OUTPUT CONTROL FOR STRESS PERIOD   30   TIME STEP  20
 
 SOLVING FOR HEAD 

 NO OUTPUT CONTROL FOR STRESS PERIOD   30   TIME STEP  21
 
 SOLVING FOR HEAD 

 NO OUTPUT CONTROL FOR STRESS PERIOD   30   TIME STEP  22
 
 SOLVING FOR HEAD 

 NO OUTPUT CONTROL FOR STRESS PERIOD   30   TIME STEP  23
 
 SOLVING FOR HEAD 

 NO OUTPUT CONTROL FOR STRESS PERIOD   30   TIME STEP  24
 
 SOLVING FOR HEAD 

 NO OUTPUT CONTROL FOR STRESS PERIOD   30   TIME STEP  25
 
 SOLVING FOR HEAD 

 NO OUTPUT CONTROL FOR STRESS PERIOD   30   TIME STEP  26
 
 SOLVING FOR HEAD 

 NO OUTPUT CONTROL FOR STRESS PERIOD   30   TIME STEP  27
 
 SOLVING FOR HEAD 

 NO OUTPUT CONTROL FOR STRESS PERIOD   30   TIME STEP  28
 
 SOLVING FOR HEAD 

 NO OUTPUT CONTROL FOR STRESS PERIOD   30   TIME STEP  29
 
 SOLVING FOR HEAD 

 OUTPUT CONTROL FOR STRESS PERIOD   30   TIME STEP  30
    PRINT HEAD FOR ALL LAYERS
    PRINT BUDGET
    SAVE BUDGET

  HEAD DEP BOUNDS   PERIOD   30   STEP  30
 BOUNDARY      1   LAYER   1   ROW     1   COL   100   RATE   -3.324150E-02
 BOUNDARY      2   LAYER   1   ROW     2   COL   100   RATE   -3.330974E-02
 BOUNDARY      3   LAYER   1   ROW     3   COL   100   RATE   -3.309577E-02
 BOUNDARY      4   LAYER   1   ROW     4   COL   100   RATE   -2.518554E-02
 BOUNDARY      5   LAYER   1   ROW     5   COL   100   RATE   -3.309577E-02
 BOUNDARY      6   LAYER   1   ROW     6   COL   100   RATE   -3.330974E-02
 BOUNDARY      7   LAYER   1   ROW     7   COL   100   RATE   -3.324150E-02



 STREAM LISTING     PERIOD     30   STEP       30

 LAYER ROW COL. STREAM  RCH.   FLOW INTO    STREAM     FLOW OUT OF   OVRLND.    DIRECT     STREAM      STREAM      STREAM     STREAM  STREAMBED   FLOW TO   CHNG. UNSAT. 
                SEG.NO.  NO.   STRM. RCH.    LOSS       STRM. RCH.   RUNOFF     PRECIP       ET         HEAD        DEPTH      WIDTH  CONDCTNC.   WAT. TAB.   STORAGE

   1    4    1     1     1    7.7100E+00  2.4041E-03   7.7076E+00  0.000E+00  0.000E+00  0.000E+00  1.41958E+02  2.108E+00  4.335E+00  9.217E-04  2.213E-03  1.913E-04
   1    4    2     1     2    7.7076E+00  2.4035E-03   7.7052E+00  0.000E+00  0.000E+00  0.000E+00  1.41658E+02  2.108E+00  4.335E+00  9.216E-04  2.212E-03  1.910E-04
   1    4    3     1     3    7.7052E+00  2.4029E-03   7.7028E+00  0.000E+00  0.000E+00  0.000E+00  1.41358E+02  2.108E+00  4.334E+00  9.214E-04  2.212E-03  1.907E-04
   1    4    4     1     4    7.7028E+00  2.4023E-03   7.7004E+00  0.000E+00  0.000E+00  0.000E+00  1.41057E+02  2.107E+00  4.334E+00  9.213E-04  2.212E-03  1.905E-04
   1    4    5     1     5    7.7004E+00  2.4017E-03   7.6980E+00  0.000E+00  0.000E+00  0.000E+00  1.40757E+02  2.107E+00  4.333E+00  9.212E-04  2.211E-03  1.903E-04
   1    4    6     1     6    7.6980E+00  2.4011E-03   7.6956E+00  0.000E+00  0.000E+00  0.000E+00  1.40457E+02  2.107E+00  4.333E+00  9.211E-04  2.211E-03  1.901E-04
   1    4    7     1     7    7.6956E+00  2.4005E-03   7.6932E+00  0.000E+00  0.000E+00  0.000E+00  1.40156E+02  2.106E+00  4.333E+00  9.210E-04  2.211E-03  1.899E-04
   1    4    8     1     8    7.6932E+00  2.3999E-03   7.6908E+00  0.000E+00  0.000E+00  0.000E+00  1.39856E+02  2.106E+00  4.332E+00  9.209E-04  2.210E-03  1.897E-04
   1    4    9     1     9    7.6908E+00  2.3993E-03   7.6884E+00  0.000E+00  0.000E+00  0.000E+00  1.39556E+02  2.106E+00  4.332E+00  9.208E-04  2.210E-03  1.895E-04
   1    4   10     1    10    7.6884E+00  2.3987E-03   7.6860E+00  0.000E+00  0.000E+00  0.000E+00  1.39255E+02  2.105E+00  4.331E+00  9.207E-04  2.209E-03  1.894E-04
   1    4   11     1    11    7.6860E+00  2.3981E-03   7.6836E+00  0.000E+00  0.000E+00  0.000E+00  1.38955E+02  2.105E+00  4.331E+00  9.206E-04  2.209E-03  1.893E-04
   1    4   12     1    12    7.6836E+00  2.3975E-03   7.6812E+00  0.000E+00  0.000E+00  0.000E+00  1.38655E+02  2.105E+00  4.331E+00  9.205E-04  2.208E-03  1.892E-04
   1    4   13     1    13    7.6812E+00  2.3969E-03   7.6788E+00  0.000E+00  0.000E+00  0.000E+00  1.38354E+02  2.104E+00  4.330E+00  9.203E-04  2.208E-03  1.891E-04
   1    4   14     1    14    7.6788E+00  2.3963E-03   7.6764E+00  0.000E+00  0.000E+00  0.000E+00  1.38054E+02  2.104E+00  4.330E+00  9.202E-04  2.207E-03  1.890E-04
   1    4   15     1    15    7.6764E+00  2.3957E-03   7.6740E+00  0.000E+00  0.000E+00  0.000E+00  1.37754E+02  2.104E+00  4.329E+00  9.201E-04  2.207E-03  1.890E-04
   1    4   16     1    16    7.6740E+00  2.3951E-03   7.6716E+00  0.000E+00  0.000E+00  0.000E+00  1.37453E+02  2.103E+00  4.329E+00  9.200E-04  2.202E-03  1.933E-04
   1    4   17     1    17    7.6716E+00  2.3945E-03   7.6692E+00  0.000E+00  0.000E+00  0.000E+00  1.37153E+02  2.103E+00  4.329E+00  9.199E-04  2.192E-03  2.024E-04
   1    4   18     1    18    7.6692E+00  2.3940E-03   7.6668E+00  0.000E+00  0.000E+00  0.000E+00  1.36853E+02  2.103E+00  4.328E+00  9.198E-04  2.192E-03  2.023E-04
   1    4   19     1    19    7.6668E+00  2.3934E-03   7.6644E+00  0.000E+00  0.000E+00  0.000E+00  1.36552E+02  2.102E+00  4.328E+00  9.197E-04  2.191E-03  2.022E-04
   1    4   20     1    20    7.6644E+00  2.3928E-03   7.6620E+00  0.000E+00  0.000E+00  0.000E+00  1.36252E+02  2.102E+00  4.327E+00  9.196E-04  2.191E-03  2.022E-04
   1    4   21     1    21    7.6620E+00  2.3922E-03   7.6596E+00  0.000E+00  0.000E+00  0.000E+00  1.35952E+02  2.102E+00  4.327E+00  9.195E-04  2.190E-03  2.021E-04
   1    4   22     1    22    7.6596E+00  2.3916E-03   7.6572E+00  0.000E+00  0.000E+00  0.000E+00  1.35651E+02  2.101E+00  4.327E+00  9.194E-04  2.189E-03  2.021E-04
   1    4   23     1    23    7.6572E+00  2.3910E-03   7.6549E+00  0.000E+00  0.000E+00  0.000E+00  1.35351E+02  2.101E+00  4.326E+00  9.192E-04  2.189E-03  2.021E-04
   1    4   24     1    24    7.6549E+00  2.3904E-03   7.6525E+00  0.000E+00  0.000E+00  0.000E+00  1.35051E+02  2.101E+00  4.326E+00  9.191E-04  2.188E-03  2.021E-04
   1    4   25     1    25    7.6525E+00  2.3898E-03   7.6501E+00  0.000E+00  0.000E+00  0.000E+00  1.34750E+02  2.100E+00  4.325E+00  9.190E-04  2.188E-03  2.021E-04
   1    4   26     1    26    7.6501E+00  2.3892E-03   7.6477E+00  0.000E+00  0.000E+00  0.000E+00  1.34450E+02  2.100E+00  4.325E+00  9.189E-04  2.187E-03  2.021E-04
   1    4   27     1    27    7.6477E+00  2.3886E-03   7.6453E+00  0.000E+00  0.000E+00  0.000E+00  1.34150E+02  2.100E+00  4.325E+00  9.188E-04  2.186E-03  2.022E-04
   1    4   28     1    28    7.6453E+00  2.3880E-03   7.6429E+00  0.000E+00  0.000E+00  0.000E+00  1.33849E+02  2.099E+00  4.324E+00  9.187E-04  2.186E-03  2.022E-04
   1    4   29     1    29    7.6429E+00  2.3874E-03   7.6405E+00  0.000E+00  0.000E+00  0.000E+00  1.33549E+02  2.099E+00  4.324E+00  9.186E-04  2.185E-03  2.022E-04
   1    4   30     1    30    7.6405E+00  2.3868E-03   7.6381E+00  0.000E+00  0.000E+00  0.000E+00  1.33249E+02  2.099E+00  4.323E+00  9.185E-04  2.185E-03  2.023E-04
   1    4   31     1    31    7.6381E+00  2.3862E-03   7.6358E+00  0.000E+00  0.000E+00  0.000E+00  1.32948E+02  2.098E+00  4.323E+00  9.184E-04  2.184E-03  2.023E-04
   1    4   32     1    32    7.6358E+00  2.3856E-03   7.6334E+00  0.000E+00  0.000E+00  0.000E+00  1.32648E+02  2.098E+00  4.323E+00  9.183E-04  2.195E-03  1.906E-04
   1    4   33     1    33    7.6334E+00  2.3851E-03   7.6310E+00  0.000E+00  0.000E+00  0.000E+00  1.32348E+02  2.098E+00  4.322E+00  9.182E-04  2.211E-03  1.737E-04
   1    4   34     1    34    7.6310E+00  2.3845E-03   7.6286E+00  0.000E+00  0.000E+00  0.000E+00  1.32047E+02  2.097E+00  4.322E+00  9.180E-04  2.227E-03  1.577E-04
   1    4   35     1    35    7.6286E+00  2.3839E-03   7.6262E+00  0.000E+00  0.000E+00  0.000E+00  1.31747E+02  2.097E+00  4.321E+00  9.179E-04  2.241E-03  1.424E-04
   1    4   36     1    36    7.6262E+00  2.3833E-03   7.6238E+00  0.000E+00  0.000E+00  0.000E+00  1.31447E+02  2.097E+00  4.321E+00  9.178E-04  2.255E-03  1.280E-04
   1    4   37     1    37    7.6238E+00  2.3827E-03   7.6214E+00  0.000E+00  0.000E+00  0.000E+00  1.31146E+02  2.096E+00  4.321E+00  9.177E-04  2.268E-03  1.146E-04
   1    4   38     1    38    7.6214E+00  2.3821E-03   7.6191E+00  0.000E+00  0.000E+00  0.000E+00  1.30846E+02  2.096E+00  4.320E+00  9.176E-04  2.280E-03  1.020E-04
   1    4   39     1    39    7.6191E+00  2.3815E-03   7.6167E+00  0.000E+00  0.000E+00  0.000E+00  1.30546E+02  2.096E+00  4.320E+00  9.175E-04  2.291E-03  9.037E-05
   1    4   40     1    40    7.6167E+00  2.3809E-03   7.6143E+00  0.000E+00  0.000E+00  0.000E+00  1.30245E+02  2.095E+00  4.319E+00  9.174E-04  2.301E-03  7.971E-05
   1    4   41     1    41    7.6143E+00  2.3803E-03   7.6119E+00  0.000E+00  0.000E+00  0.000E+00  1.29945E+02  2.095E+00  4.319E+00  9.173E-04  2.310E-03  7.004E-05
   1    4   42     1    42    7.6119E+00  2.3797E-03   7.6095E+00  0.000E+00  0.000E+00  0.000E+00  1.29645E+02  2.095E+00  4.319E+00  9.172E-04  2.318E-03  6.140E-05
   1    4   43     1    43    7.6095E+00  2.3791E-03   7.6072E+00  0.000E+00  0.000E+00  0.000E+00  1.29344E+02  2.094E+00  4.318E+00  9.171E-04  2.325E-03  5.380E-05
   1    4   44     1    44    7.6072E+00  2.3786E-03   7.6048E+00  0.000E+00  0.000E+00  0.000E+00  1.29044E+02  2.094E+00  4.318E+00  9.170E-04  2.331E-03  4.728E-05
   1    4   45     1    45    7.6048E+00  2.3780E-03   7.6024E+00  0.000E+00  0.000E+00  0.000E+00  1.28744E+02  2.094E+00  4.317E+00  9.168E-04  2.336E-03  4.185E-05
   1    4   46     1    46    7.6024E+00  2.3774E-03   7.6000E+00  0.000E+00  0.000E+00  0.000E+00  1.28443E+02  2.093E+00  4.317E+00  9.167E-04  2.340E-03  3.755E-05
   1    4   47     1    47    7.6000E+00  2.3768E-03   7.5977E+00  0.000E+00  0.000E+00  0.000E+00  1.28143E+02  2.093E+00  4.317E+00  9.166E-04  2.342E-03  3.442E-05
   1    4   48     1    48    7.5977E+00  2.3762E-03   7.5953E+00  0.000E+00  0.000E+00  0.000E+00  1.27843E+02  2.093E+00  4.316E+00  9.165E-04  2.344E-03  3.246E-05
   1    4   49     1    49    7.5953E+00  2.3756E-03   7.5929E+00  0.000E+00  0.000E+00  0.000E+00  1.27542E+02  2.092E+00  4.316E+00  9.164E-04  2.344E-03  3.172E-05
   1    4   50     1    50    7.5929E+00  2.3750E-03   7.5905E+00  0.000E+00  0.000E+00  0.000E+00  1.27242E+02  2.092E+00  4.315E+00  9.163E-04  2.343E-03  3.223E-05
   1    4   51     1    51    7.5905E+00  2.3744E-03   7.5882E+00  0.000E+00  0.000E+00  0.000E+00  1.26942E+02  2.092E+00  4.315E+00  9.162E-04  2.340E-03  3.401E-05
   1    4   52     1    52    7.5882E+00  2.3738E-03   7.5858E+00  0.000E+00  0.000E+00  0.000E+00  1.26641E+02  2.091E+00  4.315E+00  9.161E-04  2.337E-03  3.710E-05
   1    4   53     1    53    7.5858E+00  2.3732E-03   7.5834E+00  0.000E+00  0.000E+00  0.000E+00  1.26341E+02  2.091E+00  4.314E+00  9.160E-04  2.332E-03  4.152E-05
   1    4   54     1    54    7.5834E+00  2.3726E-03   7.5810E+00  0.000E+00  0.000E+00  0.000E+00  1.26041E+02  2.091E+00  4.314E+00  9.159E-04  2.325E-03  4.731E-05
   1    4   55     1    55    7.5810E+00  2.3721E-03   7.5787E+00  0.000E+00  0.000E+00  0.000E+00  1.25740E+02  2.090E+00  4.313E+00  9.157E-04  2.318E-03  5.449E-05
   1    4   56     1    56    7.5787E+00  2.3715E-03   7.5763E+00  0.000E+00  0.000E+00  0.000E+00  1.25440E+02  2.090E+00  4.313E+00  9.156E-04  2.308E-03  6.309E-05
   1    4   57     1    57    7.5763E+00  2.3709E-03   7.5739E+00  0.000E+00  0.000E+00  0.000E+00  1.25140E+02  2.090E+00  4.313E+00  9.155E-04  2.298E-03  7.315E-05
   1    4   58     1    58    7.5739E+00  2.3703E-03   7.5715E+00  0.000E+00  0.000E+00  0.000E+00  1.24839E+02  2.089E+00  4.312E+00  9.154E-04  2.286E-03  8.470E-05
   1    4   59     1    59    7.5715E+00  2.3697E-03   7.5692E+00  0.000E+00  0.000E+00  0.000E+00  1.24539E+02  2.089E+00  4.312E+00  9.153E-04  2.272E-03  9.776E-05
   1    4   60     1    60    7.5692E+00  2.3691E-03   7.5668E+00  0.000E+00  0.000E+00  0.000E+00  1.24239E+02  2.089E+00  4.311E+00  9.152E-04  2.257E-03  1.124E-04
   1    4   61     1    61    7.5668E+00  2.3685E-03   7.5644E+00  0.000E+00  0.000E+00  0.000E+00  1.23938E+02  2.088E+00  4.311E+00  9.151E-04  2.240E-03  1.285E-04
   1    4   62     1    62    7.5644E+00  2.3679E-03   7.5621E+00  0.000E+00  0.000E+00  0.000E+00  1.23638E+02  2.088E+00  4.311E+00  9.150E-04  2.222E-03  1.463E-04
   1    4   63     1    63    7.5621E+00  2.3673E-03   7.5597E+00  0.000E+00  0.000E+00  0.000E+00  1.23338E+02  2.088E+00  4.310E+00  9.149E-04  2.201E-03  1.659E-04
   1    4   64     1    64    7.5597E+00  2.3668E-03   7.5573E+00  0.000E+00  0.000E+00  0.000E+00  1.23037E+02  2.087E+00  4.310E+00  9.148E-04  2.179E-03  1.873E-04
   1    4   65     1    65    7.5573E+00  2.3662E-03   7.5550E+00  0.000E+00  0.000E+00  0.000E+00  1.22737E+02  2.087E+00  4.309E+00  9.147E-04  2.160E-03  2.063E-04
   1    4   66     1    66    7.5550E+00  2.3656E-03   7.5526E+00  0.000E+00  0.000E+00  0.000E+00  1.22437E+02  2.087E+00  4.309E+00  9.145E-04  2.159E-03  2.063E-04
   1    4   67     1    67    7.5526E+00  2.3650E-03   7.5502E+00  0.000E+00  0.000E+00  0.000E+00  1.22136E+02  2.086E+00  4.309E+00  9.144E-04  2.159E-03  2.062E-04
   1    4   68     1    68    7.5502E+00  2.3644E-03   7.5479E+00  0.000E+00  0.000E+00  0.000E+00  1.21836E+02  2.086E+00  4.308E+00  9.143E-04  2.158E-03  2.061E-04
   1    4   69     1    69    7.5479E+00  2.3638E-03   7.5455E+00  0.000E+00  0.000E+00  0.000E+00  1.21536E+02  2.086E+00  4.308E+00  9.142E-04  2.158E-03  2.059E-04
   1    4   70     1    70    7.5455E+00  2.3632E-03   7.5431E+00  0.000E+00  0.000E+00  0.000E+00  1.21235E+02  2.085E+00  4.307E+00  9.141E-04  2.157E-03  2.057E-04
   1    4   71     1    71    7.5431E+00  2.3626E-03   7.5408E+00  0.000E+00  0.000E+00  0.000E+00  1.20935E+02  2.085E+00  4.307E+00  9.140E-04  2.157E-03  2.055E-04
   1    4   72     1    72    7.5408E+00  2.3621E-03   7.5384E+00  0.000E+00  0.000E+00  0.000E+00  1.20635E+02  2.085E+00  4.307E+00  9.139E-04  2.157E-03  2.052E-04
   1    4   73     1    73    7.5384E+00  2.3615E-03   7.5361E+00  0.000E+00  0.000E+00  0.000E+00  1.20334E+02  2.084E+00  4.306E+00  9.138E-04  2.167E-03  1.946E-04
   1    4   74     1    74    7.5361E+00  2.3609E-03   7.5337E+00  0.000E+00  0.000E+00  0.000E+00  1.20034E+02  2.084E+00  4.306E+00  9.137E-04  2.167E-03  1.943E-04
   1    4   75     1    75    7.5337E+00  2.3603E-03   7.5313E+00  0.000E+00  0.000E+00  0.000E+00  1.19734E+02  2.084E+00  4.305E+00  9.136E-04  2.166E-03  1.939E-04
   1    4   76     1    76    7.5313E+00  2.3597E-03   7.5290E+00  0.000E+00  0.000E+00  0.000E+00  1.19433E+02  2.083E+00  4.305E+00  9.135E-04  2.166E-03  1.934E-04
   1    4   77     1    77    7.5290E+00  2.3591E-03   7.5266E+00  0.000E+00  0.000E+00  0.000E+00  1.19133E+02  2.083E+00  4.305E+00  9.133E-04  2.166E-03  1.929E-04
   1    4   78     1    78    7.5266E+00  2.3585E-03   7.5243E+00  0.000E+00  0.000E+00  0.000E+00  1.18833E+02  2.083E+00  4.304E+00  9.132E-04  2.166E-03  1.923E-04
   1    4   79     1    79    7.5243E+00  2.3580E-03   7.5219E+00  0.000E+00  0.000E+00  0.000E+00  1.18532E+02  2.082E+00  4.304E+00  9.131E-04  2.166E-03  1.917E-04
   1    4   80     1    80    7.5219E+00  2.3574E-03   7.5195E+00  0.000E+00  0.000E+00  0.000E+00  1.18232E+02  2.082E+00  4.303E+00  9.130E-04  2.166E-03  1.910E-04
   1    4   81     1    81    7.5195E+00  2.3568E-03   7.5172E+00  0.000E+00  0.000E+00  0.000E+00  1.17932E+02  2.082E+00  4.303E+00  9.129E-04  2.166E-03  1.903E-04
   1    4   82     1    82    7.5172E+00  2.3562E-03   7.5148E+00  0.000E+00  0.000E+00  0.000E+00  1.17631E+02  2.081E+00  4.303E+00  9.128E-04  2.167E-03  1.895E-04
   1    4   83     1    83    7.5148E+00  2.3556E-03   7.5125E+00  0.000E+00  0.000E+00  0.000E+00  1.17331E+02  2.081E+00  4.302E+00  9.127E-04  2.167E-03  1.887E-04
   1    4   84     1    84    7.5125E+00  2.3550E-03   7.5101E+00  0.000E+00  0.000E+00  0.000E+00  1.17031E+02  2.081E+00  4.302E+00  9.126E-04  2.167E-03  1.878E-04
   1    4   85     1    85    7.5101E+00  2.3544E-03   7.5078E+00  0.000E+00  0.000E+00  0.000E+00  1.16730E+02  2.080E+00  4.301E+00  9.125E-04  2.168E-03  1.869E-04
   1    4   86     1    86    7.5078E+00  2.3538E-03   7.5054E+00  0.000E+00  0.000E+00  0.000E+00  1.16430E+02  2.080E+00  4.301E+00  9.124E-04  2.168E-03  1.860E-04
   1    4   87     1    87    7.5054E+00  2.3533E-03   7.5031E+00  0.000E+00  0.000E+00  0.000E+00  1.16130E+02  2.080E+00  4.301E+00  9.123E-04  2.168E-03  1.850E-04
   1    4   88     1    88    7.5031E+00  2.3527E-03   7.5007E+00  0.000E+00  0.000E+00  0.000E+00  1.15829E+02  2.079E+00  4.300E+00  9.122E-04  2.169E-03  1.840E-04
   1    4   89     1    89    7.5007E+00  2.3521E-03   7.4984E+00  0.000E+00  0.000E+00  0.000E+00  1.15529E+02  2.079E+00  4.300E+00  9.120E-04  2.169E-03  1.830E-04
   1    4   90     1    90    7.4984E+00  2.3515E-03   7.4960E+00  0.000E+00  0.000E+00  0.000E+00  1.15229E+02  2.079E+00  4.299E+00  9.119E-04  2.169E-03  1.820E-04
   1    4   91     1    91    7.4960E+00  2.3509E-03   7.4937E+00  0.000E+00  0.000E+00  0.000E+00  1.14928E+02  2.078E+00  4.299E+00  9.118E-04  2.170E-03  1.810E-04
   1    4   92     1    92    7.4937E+00  2.3503E-03   7.4913E+00  0.000E+00  0.000E+00  0.000E+00  1.14628E+02  2.078E+00  4.299E+00  9.117E-04  2.170E-03  1.801E-04
   1    4   93     1    93    7.4913E+00  2.3498E-03   7.4890E+00  0.000E+00  0.000E+00  0.000E+00  1.14328E+02  2.078E+00  4.298E+00  9.116E-04  2.171E-03  1.792E-04
   1    4   94     1    94    7.4890E+00  2.3492E-03   7.4866E+00  0.000E+00  0.000E+00  0.000E+00  1.14027E+02  2.077E+00  4.298E+00  9.115E-04  2.171E-03  1.784E-04
   1    4   95     1    95    7.4866E+00  2.3486E-03   7.4843E+00  0.000E+00  0.000E+00  0.000E+00  1.13727E+02  2.077E+00  4.297E+00  9.114E-04  2.171E-03  1.776E-04
   1    4   96     1    96    7.4843E+00  2.3480E-03   7.4819E+00  0.000E+00  0.000E+00  0.000E+00  1.13427E+02  2.077E+00  4.297E+00  9.113E-04  2.171E-03  1.769E-04
   1    4   97     1    97    7.4819E+00  2.3474E-03   7.4796E+00  0.000E+00  0.000E+00  0.000E+00  1.13126E+02  2.076E+00  4.297E+00  9.112E-04  2.171E-03  1.763E-04
   1    4   98     1    98    7.4796E+00  2.3468E-03   7.4772E+00  0.000E+00  0.000E+00  0.000E+00  1.12826E+02  2.076E+00  4.296E+00  9.111E-04  2.171E-03  1.758E-04
   1    4   99     1    99    7.4772E+00  2.3462E-03   7.4749E+00  0.000E+00  0.000E+00  0.000E+00  1.12526E+02  2.076E+00  4.296E+00  9.110E-04  2.171E-03  1.753E-04
   1    4  100     1   100    7.4749E+00  2.3457E-03   7.4725E+00  0.000E+00  0.000E+00  0.000E+00  1.12225E+02  2.075E+00  4.295E+00  9.108E-04  2.171E-03  1.748E-04



1
  VOLUMETRIC BUDGET FOR UNSATURATED ZONE BENEATH STREAMS AT END OF TIME STEP  30 STRESS PERIOD  30
  ------------------------------------------------------------------------------------------------

    CUMULATIVE VOLUMES             L**3    RATES FOR THIS TIME STEP         L**3/T
    ------------------                     ------------------------


          STREAM LOSS =     28854240.0000            STREAM LOSS =            0.2375
    CHANGE IN STORAGE =       464681.1562      CHANGE IN STORAGE =        1.5800E-02
       RECHARGE TO GW =     28389444.0000         RECHARGE TO GW =            0.2217

             TOTAL IN =     28854240.0000               TOTAL IN =            0.2375

            TOTAL OUT =     28854126.0000              TOTAL OUT =            0.2375

             IN - OUT =          114.0000               IN - OUT =       -1.4901E-08

  PERCENT DISCREPANCY =            0.00      PERCENT DISCREPANCY =             0.00



1
              HEAD IN LAYER   1 AT END OF TIME STEP  30 IN STRESS PERIOD   30
  ---------------------------------------------------------------------------

          1      2      3      4      5      6      7      8      9     10
         11     12     13     14     15     16     17     18     19     20
         21     22     23     24     25     26     27     28     29     30
         31     32     33     34     35     36     37     38     39     40
         41     42     43     44     45     46     47     48     49     50
         51     52     53     54     55     56     57     58     59     60
         61     62     63     64     65     66     67     68     69     70
         71     72     73     74     75     76     77     78     79     80
         81     82     83     84     85     86     87     88     89     90
         91     92     93     94     95     96     97     98     99    100
 .........................................................................
   1   115.1  115.1  115.1  115.1  115.1  115.0  115.0  115.0  115.0  114.9
       114.9  114.9  114.8  114.8  114.7  114.7  114.6  114.6  114.5  114.4
       114.3  114.3  114.2  114.1  114.0  113.9  113.8  113.7  113.6  113.4
       113.3  113.2  113.0  112.9  112.7  112.6  112.4  112.2  112.0  111.9
       111.7  111.4  111.2  111.0  110.8  110.5  110.3  110.0  109.7  109.4
       109.2  108.8  108.5  108.2  107.9  107.5  107.1  106.8  106.4  106.0
       105.6  105.1  104.7  104.2  103.7  103.2  102.7  102.2  101.7  101.1
       100.5  100.0   99.4   98.7   98.1   97.4   96.7   96.0   95.3   94.6
        93.8   93.0   92.2   91.4   90.5   89.7   88.8   87.9   86.9   86.0
        85.0   84.0   83.0   81.9   80.8   79.7   78.6   77.4   76.2   75.0
   2   115.1  115.1  115.1  115.1  115.1  115.0  115.0  115.0  115.0  114.9
       114.9  114.9  114.8  114.8  114.7  114.7  114.6  114.6  114.5  114.4
       114.3  114.3  114.2  114.1  114.0  113.9  113.8  113.7  113.6  113.4
       113.3  113.2  113.0  112.9  112.7  112.6  112.4  112.2  112.0  111.9
       111.7  111.4  111.2  111.0  110.8  110.5  110.3  110.0  109.7  109.5
       109.2  108.9  108.5  108.2  107.9  107.5  107.1  106.8  106.4  106.0
       105.6  105.1  104.7  104.2  103.7  103.3  102.7  102.2  101.7  101.1
       100.6  100.0   99.4   98.7   98.1   97.4   96.7   96.0   95.3   94.6
        93.8   93.0   92.2   91.4   90.6   89.7   88.8   87.9   86.9   86.0
        85.0   84.0   83.0   81.9   80.8   79.7   78.6   77.4   76.2   75.0
   3   115.1  115.1  115.1  115.1  115.1  115.1  115.0  115.0  115.0  115.0
       114.9  114.9  114.8  114.8  114.7  114.7  114.6  114.6  114.5  114.4
       114.4  114.3  114.2  114.1  114.0  113.9  113.8  113.7  113.6  113.4
       113.3  113.2  113.0  112.9  112.7  112.6  112.4  112.2  112.0  111.9
       111.7  111.4  111.2  111.0  110.8  110.5  110.3  110.0  109.7  109.5
       109.2  108.9  108.5  108.2  107.9  107.5  107.2  106.8  106.4  106.0
       105.6  105.1  104.7  104.2  103.7  103.3  102.7  102.2  101.7  101.1
       100.6  100.0   99.4   98.7   98.1   97.4   96.7   96.0   95.3   94.6
        93.8   93.0   92.2   91.4   90.6   89.7   88.8   87.9   87.0   86.0
        85.0   84.0   83.0   81.9   80.8   79.7   78.6   77.4   76.2   75.0
   4   115.1  115.1  115.1  115.1  115.1  115.1  115.0  115.0  115.0  115.0
       114.9  114.9  114.8  114.8  114.7  114.7  114.6  114.6  114.5  114.4
       114.4  114.3  114.2  114.1  114.0  113.9  113.8  113.7  113.6  113.4
       113.3  113.2  113.0  112.9  112.7  112.6  112.4  112.2  112.1  111.9
       111.7  111.5  111.2  111.0  110.8  110.5  110.3  110.0  109.7  109.5
       109.2  108.9  108.5  108.2  107.9  107.5  107.2  106.8  106.4  106.0
       105.6  105.1  104.7  104.2  103.8  103.3  102.8  102.2  101.7  101.1
       100.6  100.0   99.4   98.7   98.1   97.4   96.7   96.0   95.3   94.6
        93.8   93.0   92.2   91.4   90.6   89.7   88.8   87.9   87.0   86.0
        85.0   84.0   83.0   81.9   80.8   79.7   78.6   77.4   76.2   75.0
   5   115.1  115.1  115.1  115.1  115.1  115.1  115.0  115.0  115.0  115.0
       114.9  114.9  114.8  114.8  114.7  114.7  114.6  114.6  114.5  114.4
       114.4  114.3  114.2  114.1  114.0  113.9  113.8  113.7  113.6  113.4
       113.3  113.2  113.0  112.9  112.7  112.6  112.4  112.2  112.0  111.9
       111.7  111.4  111.2  111.0  110.8  110.5  110.3  110.0  109.7  109.5
       109.2  108.9  108.5  108.2  107.9  107.5  107.2  106.8  106.4  106.0
       105.6  105.1  104.7  104.2  103.7  103.3  102.7  102.2  101.7  101.1
       100.6  100.0   99.4   98.7   98.1   97.4   96.7   96.0   95.3   94.6
        93.8   93.0   92.2   91.4   90.6   89.7   88.8   87.9   87.0   86.0
        85.0   84.0   83.0   81.9   80.8   79.7   78.6   77.4   76.2   75.0
   6   115.1  115.1  115.1  115.1  115.1  115.0  115.0  115.0  115.0  114.9
       114.9  114.9  114.8  114.8  114.7  114.7  114.6  114.6  114.5  114.4
       114.3  114.3  114.2  114.1  114.0  113.9  113.8  113.7  113.6  113.4
       113.3  113.2  113.0  112.9  112.7  112.6  112.4  112.2  112.0  111.9
       111.7  111.4  111.2  111.0  110.8  110.5  110.3  110.0  109.7  109.5
       109.2  108.9  108.5  108.2  107.9  107.5  107.1  106.8  106.4  106.0
       105.6  105.1  104.7  104.2  103.7  103.3  102.7  102.2  101.7  101.1
       100.6  100.0   99.4   98.7   98.1   97.4   96.7   96.0   95.3   94.6
        93.8   93.0   92.2   91.4   90.6   89.7   88.8   87.9   86.9   86.0
        85.0   84.0   83.0   81.9   80.8   79.7   78.6   77.4   76.2   75.0
   7   115.1  115.1  115.1  115.1  115.1  115.0  115.0  115.0  115.0  114.9
       114.9  114.9  114.8  114.8  114.7  114.7  114.6  114.6  114.5  114.4
       114.3  114.3  114.2  114.1  114.0  113.9  113.8  113.7  113.6  113.4
       113.3  113.2  113.0  112.9  112.7  112.6  112.4  112.2  112.0  111.9
       111.7  111.4  111.2  111.0  110.8  110.5  110.3  110.0  109.7  109.4
       109.2  108.8  108.5  108.2  107.9  107.5  107.1  106.8  106.4  106.0
       105.6  105.1  104.7  104.2  103.7  103.2  102.7  102.2  101.7  101.1
       100.5  100.0   99.4   98.7   98.1   97.4   96.7   96.0   95.3   94.6
        93.8   93.0   92.2   91.4   90.5   89.7   88.8   87.9   86.9   86.0
        85.0   84.0   83.0   81.9   80.8   79.7   78.6   77.4   76.2   75.0
1
  VOLUMETRIC BUDGET FOR ENTIRE MODEL AT END OF TIME STEP 30 IN STRESS PERIOD  30
  ------------------------------------------------------------------------------

     CUMULATIVE VOLUMES      L**3       RATES FOR THIS TIME STEP      L**3/T
     ------------------                 ------------------------

           IN:                                      IN:
           ---                                      ---
             STORAGE =    13529721.0000               STORAGE =       3.8255E-02
       CONSTANT HEAD =           0.0000         CONSTANT HEAD =           0.0000
     HEAD DEP BOUNDS =           0.0000       HEAD DEP BOUNDS =           0.0000
      STREAM LEAKAGE =    28389226.0000        STREAM LEAKAGE =           0.2217

            TOTAL IN =    41918948.0000              TOTAL IN =           0.2599

          OUT:                                     OUT:
          ----                                     ----
             STORAGE =    15800081.0000               STORAGE =       3.5359E-02
       CONSTANT HEAD =           0.0000         CONSTANT HEAD =           0.0000
     HEAD DEP BOUNDS =    26118184.0000       HEAD DEP BOUNDS =           0.2245
      STREAM LEAKAGE =           0.0000        STREAM LEAKAGE =           0.0000

           TOTAL OUT =    41918264.0000             TOTAL OUT =           0.2598

            IN - OUT =         684.0000              IN - OUT =       9.3490E-05

 PERCENT DISCREPANCY =           0.00     PERCENT DISCREPANCY =           0.04






          TIME SUMMARY AT END OF TIME STEP  30 IN STRESS PERIOD   30
                    SECONDS     MINUTES      HOURS       DAYS        YEARS
                    -----------------------------------------------------------
   TIME STEP LENGTH 2.49961E+05  4166.0      69.434      2.8931     7.92080E-03
 STRESS PERIOD TIME 2.59200E+06  43200.      720.00      30.000     8.21355E-02
         TOTAL TIME 7.77600E+07 1.29600E+06  21600.      900.00      2.4641    
1
1
                            STRESS PERIOD NO.   31, LENGTH =   2592000.    
                            -----------------------------------------------

                              NUMBER OF TIME STEPS =    30

                               MULTIPLIER FOR DELT =     1.100

                            INITIAL TIME STEP SIZE =   15757.40    

 REUSING NON-PARAMETER GHB CELLS FROM LAST STRESS PERIOD

      7 GHB CELLS



 CLASSIFICATION & COUNT OF STREAM SEGMENTS BASED ON SOURCE OF INFLOW:

                HEADWATER     DIVERSION     RECEIVES TRIBUTARY FLOW
                ---------     ---------     -----------------------
                     1              0               0



                    INPUT DATA FOR EACH STREAM SEGMENT
 ---------------------------------------------------------------------------------------------

 SEGMENT    SEG.     INFLOW   OVERLAND   STREAM    STREAM   ICALC  OUTFLOW  DIVERSION PRIORITY
    NO.    LENGTH     RATE     RUNOFF      ET       PPT.    METH.  TO SEG.  FROM SEG.    NO.

      1  2.000E+04 5.460E+00 0.000E+00 0.000E+00 0.000E+00    2        0        0        0


         STREAMBED PROPERTIES AND STREAM DIMENSIONS

 SEGMENT     BED HYD. COND.      BED THICKNESS     ELEV.-TOP OF BED     WIDTH OF STREAM     DEPTH OF STREAM    STREAM ROUGHNESS
    No.     UPPER     LOWER     UPPER     LOWER     UPPER     LOWER     UPPER     LOWER     UPPER     LOWER   CHANNEL      BANK

     1  3.500E-07 3.500E-07                                                                                 3.000E-02 4.000E-02

  EIGHT POINT CROSS-SECTION DATA FOR SEGMENTS WITH ICALC = 2
    X VALUES X VALUES START FROM LEFT SIDE LOOKING DOWNSTREAM

     SEGMENT NO.        X1        X2        X3        X4        X5        X6        X7        X8
            1      0.000E+00 2.000E+00 4.000E+00 6.000E+00 8.000E+00 1.000E+01 1.200E+01 1.400E+01

    Z VALUES ARE RELATIVE TO STREAMBED ELEVATION

     SEGMENT NO.          Z1        Z2        Z3        Z4        Z5        Z6        Z7        Z8
            1      6.000E+00 4.500E+00 3.500E+00 0.000E+00 3.000E-01 3.500E+00 4.500E+00 6.000E+00



 
 SOLVING FOR HEAD 

 NO OUTPUT CONTROL FOR STRESS PERIOD   31   TIME STEP   1
 
 SOLVING FOR HEAD 

 NO OUTPUT CONTROL FOR STRESS PERIOD   31   TIME STEP   2
 
 SOLVING FOR HEAD 

 NO OUTPUT CONTROL FOR STRESS PERIOD   31   TIME STEP   3
 
 SOLVING FOR HEAD 

 NO OUTPUT CONTROL FOR STRESS PERIOD   31   TIME STEP   4
 
 SOLVING FOR HEAD 

 NO OUTPUT CONTROL FOR STRESS PERIOD   31   TIME STEP   5
 
 SOLVING FOR HEAD 

 NO OUTPUT CONTROL FOR STRESS PERIOD   31   TIME STEP   6
 
 SOLVING FOR HEAD 

 NO OUTPUT CONTROL FOR STRESS PERIOD   31   TIME STEP   7
 
 SOLVING FOR HEAD 

 NO OUTPUT CONTROL FOR STRESS PERIOD   31   TIME STEP   8
 
 SOLVING FOR HEAD 

 NO OUTPUT CONTROL FOR STRESS PERIOD   31   TIME STEP   9
 
 SOLVING FOR HEAD 

 NO OUTPUT CONTROL FOR STRESS PERIOD   31   TIME STEP  10
 
 SOLVING FOR HEAD 

 NO OUTPUT CONTROL FOR STRESS PERIOD   31   TIME STEP  11
 
 SOLVING FOR HEAD 

 NO OUTPUT CONTROL FOR STRESS PERIOD   31   TIME STEP  12
 
 SOLVING FOR HEAD 

 NO OUTPUT CONTROL FOR STRESS PERIOD   31   TIME STEP  13
 
 SOLVING FOR HEAD 

 NO OUTPUT CONTROL FOR STRESS PERIOD   31   TIME STEP  14
 
 SOLVING FOR HEAD 

 NO OUTPUT CONTROL FOR STRESS PERIOD   31   TIME STEP  15
 
 SOLVING FOR HEAD 

 NO OUTPUT CONTROL FOR STRESS PERIOD   31   TIME STEP  16
 
 SOLVING FOR HEAD 

 NO OUTPUT CONTROL FOR STRESS PERIOD   31   TIME STEP  17
 
 SOLVING FOR HEAD 

 NO OUTPUT CONTROL FOR STRESS PERIOD   31   TIME STEP  18
 
 SOLVING FOR HEAD 

 NO OUTPUT CONTROL FOR STRESS PERIOD   31   TIME STEP  19
 
 SOLVING FOR HEAD 

 NO OUTPUT CONTROL FOR STRESS PERIOD   31   TIME STEP  20
 
 SOLVING FOR HEAD 

 NO OUTPUT CONTROL FOR STRESS PERIOD   31   TIME STEP  21
 
 SOLVING FOR HEAD 

 NO OUTPUT CONTROL FOR STRESS PERIOD   31   TIME STEP  22
 
 SOLVING FOR HEAD 

 NO OUTPUT CONTROL FOR STRESS PERIOD   31   TIME STEP  23
 
 SOLVING FOR HEAD 

 NO OUTPUT CONTROL FOR STRESS PERIOD   31   TIME STEP  24
 
 SOLVING FOR HEAD 

 NO OUTPUT CONTROL FOR STRESS PERIOD   31   TIME STEP  25
 
 SOLVING FOR HEAD 

 NO OUTPUT CONTROL FOR STRESS PERIOD   31   TIME STEP  26
 
 SOLVING FOR HEAD 

 NO OUTPUT CONTROL FOR STRESS PERIOD   31   TIME STEP  27
 
 SOLVING FOR HEAD 

 NO OUTPUT CONTROL FOR STRESS PERIOD   31   TIME STEP  28
 
 SOLVING FOR HEAD 

 NO OUTPUT CONTROL FOR STRESS PERIOD   31   TIME STEP  29
 
 SOLVING FOR HEAD 

 NO OUTPUT CONTROL FOR STRESS PERIOD   31   TIME STEP  30
1
  VOLUMETRIC BUDGET FOR UNSATURATED ZONE BENEATH STREAMS AT END OF TIME STEP  30 STRESS PERIOD  31
  ------------------------------------------------------------------------------------------------

    CUMULATIVE VOLUMES             L**3    RATES FOR THIS TIME STEP         L**3/T
    ------------------                     ------------------------


          STREAM LOSS =     29323686.0000            STREAM LOSS =            0.1811
    CHANGE IN STORAGE =       416501.5312      CHANGE IN STORAGE =       -7.3493E-03
       RECHARGE TO GW =     28907250.0000         RECHARGE TO GW =            0.1885

             TOTAL IN =     29323686.0000               TOTAL IN =            0.1885

            TOTAL OUT =     29323752.0000              TOTAL OUT =            0.1885

             IN - OUT =          -66.0000               IN - OUT =        3.1712E-06

  PERCENT DISCREPANCY =            0.00      PERCENT DISCREPANCY =             0.00



1
  VOLUMETRIC BUDGET FOR ENTIRE MODEL AT END OF TIME STEP 30 IN STRESS PERIOD  31
  ------------------------------------------------------------------------------

     CUMULATIVE VOLUMES      L**3       RATES FOR THIS TIME STEP      L**3/T
     ------------------                 ------------------------

           IN:                                      IN:
           ---                                      ---
             STORAGE =    13661792.0000               STORAGE =       5.5531E-02
       CONSTANT HEAD =           0.0000         CONSTANT HEAD =           0.0000
     HEAD DEP BOUNDS =           0.0000       HEAD DEP BOUNDS =           0.0000
      STREAM LEAKAGE =    28906986.0000        STREAM LEAKAGE =           0.1885

            TOTAL IN =    42568776.0000              TOTAL IN =           0.2440

          OUT:                                     OUT:
          ----                                     ----
             STORAGE =    15870969.0000               STORAGE =       2.1907E-02
       CONSTANT HEAD =           0.0000         CONSTANT HEAD =           0.0000
     HEAD DEP BOUNDS =    26697012.0000       HEAD DEP BOUNDS =           0.2219
      STREAM LEAKAGE =           0.0000        STREAM LEAKAGE =           0.0000

           TOTAL OUT =    42567980.0000             TOTAL OUT =           0.2439

            IN - OUT =         796.0000              IN - OUT =       1.5229E-04

 PERCENT DISCREPANCY =           0.00     PERCENT DISCREPANCY =           0.06






          TIME SUMMARY AT END OF TIME STEP  30 IN STRESS PERIOD   31
                    SECONDS     MINUTES      HOURS       DAYS        YEARS
                    -----------------------------------------------------------
   TIME STEP LENGTH 2.49961E+05  4166.0      69.434      2.8931     7.92080E-03
 STRESS PERIOD TIME 2.59200E+06  43200.      720.00      30.000     8.21355E-02
         TOTAL TIME 8.03520E+07 1.33920E+06  22320.      930.00      2.5462    
1
1
                            STRESS PERIOD NO.   32, LENGTH =   2592000.    
                            -----------------------------------------------

                              NUMBER OF TIME STEPS =    30

                               MULTIPLIER FOR DELT =     1.100

                            INITIAL TIME STEP SIZE =   15757.40    

 REUSING NON-PARAMETER GHB CELLS FROM LAST STRESS PERIOD

      7 GHB CELLS



 CLASSIFICATION & COUNT OF STREAM SEGMENTS BASED ON SOURCE OF INFLOW:

                HEADWATER     DIVERSION     RECEIVES TRIBUTARY FLOW
                ---------     ---------     -----------------------
                     1              0               0



                    INPUT DATA FOR EACH STREAM SEGMENT
 ---------------------------------------------------------------------------------------------

 SEGMENT    SEG.     INFLOW   OVERLAND   STREAM    STREAM   ICALC  OUTFLOW  DIVERSION PRIORITY
    NO.    LENGTH     RATE     RUNOFF      ET       PPT.    METH.  TO SEG.  FROM SEG.    NO.

      1  2.000E+04 6.270E+00 0.000E+00 0.000E+00 0.000E+00    2        0        0        0


         STREAMBED PROPERTIES AND STREAM DIMENSIONS

 SEGMENT     BED HYD. COND.      BED THICKNESS     ELEV.-TOP OF BED     WIDTH OF STREAM     DEPTH OF STREAM    STREAM ROUGHNESS
    No.     UPPER     LOWER     UPPER     LOWER     UPPER     LOWER     UPPER     LOWER     UPPER     LOWER   CHANNEL      BANK

     1  3.500E-07 3.500E-07                                                                                 3.000E-02 4.000E-02

  EIGHT POINT CROSS-SECTION DATA FOR SEGMENTS WITH ICALC = 2
    X VALUES X VALUES START FROM LEFT SIDE LOOKING DOWNSTREAM

     SEGMENT NO.        X1        X2        X3        X4        X5        X6        X7        X8
            1      0.000E+00 2.000E+00 4.000E+00 6.000E+00 8.000E+00 1.000E+01 1.200E+01 1.400E+01

    Z VALUES ARE RELATIVE TO STREAMBED ELEVATION

     SEGMENT NO.          Z1        Z2        Z3        Z4        Z5        Z6        Z7        Z8
            1      6.000E+00 4.500E+00 3.500E+00 0.000E+00 3.000E-01 3.500E+00 4.500E+00 6.000E+00



 
 SOLVING FOR HEAD 

 NO OUTPUT CONTROL FOR STRESS PERIOD   32   TIME STEP   1
 
 SOLVING FOR HEAD 

 NO OUTPUT CONTROL FOR STRESS PERIOD   32   TIME STEP   2
 
 SOLVING FOR HEAD 

 NO OUTPUT CONTROL FOR STRESS PERIOD   32   TIME STEP   3
 
 SOLVING FOR HEAD 

 NO OUTPUT CONTROL FOR STRESS PERIOD   32   TIME STEP   4
 
 SOLVING FOR HEAD 

 NO OUTPUT CONTROL FOR STRESS PERIOD   32   TIME STEP   5
 
 SOLVING FOR HEAD 

 NO OUTPUT CONTROL FOR STRESS PERIOD   32   TIME STEP   6
 
 SOLVING FOR HEAD 

 NO OUTPUT CONTROL FOR STRESS PERIOD   32   TIME STEP   7
 
 SOLVING FOR HEAD 

 NO OUTPUT CONTROL FOR STRESS PERIOD   32   TIME STEP   8
 
 SOLVING FOR HEAD 

 NO OUTPUT CONTROL FOR STRESS PERIOD   32   TIME STEP   9
 
 SOLVING FOR HEAD 

 NO OUTPUT CONTROL FOR STRESS PERIOD   32   TIME STEP  10
 
 SOLVING FOR HEAD 

 NO OUTPUT CONTROL FOR STRESS PERIOD   32   TIME STEP  11
 
 SOLVING FOR HEAD 

 NO OUTPUT CONTROL FOR STRESS PERIOD   32   TIME STEP  12
 
 SOLVING FOR HEAD 

 NO OUTPUT CONTROL FOR STRESS PERIOD   32   TIME STEP  13
 
 SOLVING FOR HEAD 

 NO OUTPUT CONTROL FOR STRESS PERIOD   32   TIME STEP  14
 
 SOLVING FOR HEAD 

 NO OUTPUT CONTROL FOR STRESS PERIOD   32   TIME STEP  15
 
 SOLVING FOR HEAD 

 NO OUTPUT CONTROL FOR STRESS PERIOD   32   TIME STEP  16
 
 SOLVING FOR HEAD 

 NO OUTPUT CONTROL FOR STRESS PERIOD   32   TIME STEP  17
 
 SOLVING FOR HEAD 

 NO OUTPUT CONTROL FOR STRESS PERIOD   32   TIME STEP  18
 
 SOLVING FOR HEAD 

 NO OUTPUT CONTROL FOR STRESS PERIOD   32   TIME STEP  19
 
 SOLVING FOR HEAD 

 NO OUTPUT CONTROL FOR STRESS PERIOD   32   TIME STEP  20
 
 SOLVING FOR HEAD 

 NO OUTPUT CONTROL FOR STRESS PERIOD   32   TIME STEP  21
 
 SOLVING FOR HEAD 

 NO OUTPUT CONTROL FOR STRESS PERIOD   32   TIME STEP  22
 
 SOLVING FOR HEAD 

 NO OUTPUT CONTROL FOR STRESS PERIOD   32   TIME STEP  23
 
 SOLVING FOR HEAD 

 NO OUTPUT CONTROL FOR STRESS PERIOD   32   TIME STEP  24
 
 SOLVING FOR HEAD 

 NO OUTPUT CONTROL FOR STRESS PERIOD   32   TIME STEP  25
 
 SOLVING FOR HEAD 

 NO OUTPUT CONTROL FOR STRESS PERIOD   32   TIME STEP  26
 
 SOLVING FOR HEAD 

 NO OUTPUT CONTROL FOR STRESS PERIOD   32   TIME STEP  27
 
 SOLVING FOR HEAD 

 NO OUTPUT CONTROL FOR STRESS PERIOD   32   TIME STEP  28
 
 SOLVING FOR HEAD 

 NO OUTPUT CONTROL FOR STRESS PERIOD   32   TIME STEP  29
 
 SOLVING FOR HEAD 

 NO OUTPUT CONTROL FOR STRESS PERIOD   32   TIME STEP  30
1
  VOLUMETRIC BUDGET FOR UNSATURATED ZONE BENEATH STREAMS AT END OF TIME STEP  30 STRESS PERIOD  32
  ------------------------------------------------------------------------------------------------

    CUMULATIVE VOLUMES             L**3    RATES FOR THIS TIME STEP         L**3/T
    ------------------                     ------------------------


          STREAM LOSS =     29846360.0000            STREAM LOSS =            0.2017
    CHANGE IN STORAGE =       415994.0625      CHANGE IN STORAGE =       -2.0235E-03
       RECHARGE TO GW =     29429032.0000         RECHARGE TO GW =            0.2031

             TOTAL IN =     29846360.0000               TOTAL IN =            0.2037

            TOTAL OUT =     29845026.0000              TOTAL OUT =            0.2031

             IN - OUT =         1334.0000               IN - OUT =        6.3012E-04

  PERCENT DISCREPANCY =            0.00      PERCENT DISCREPANCY =             0.08



1
  VOLUMETRIC BUDGET FOR ENTIRE MODEL AT END OF TIME STEP 30 IN STRESS PERIOD  32
  ------------------------------------------------------------------------------

     CUMULATIVE VOLUMES      L**3       RATES FOR THIS TIME STEP      L**3/T
     ------------------                 ------------------------

           IN:                                      IN:
           ---                                      ---
             STORAGE =    13781247.0000               STORAGE =       4.3719E-02
       CONSTANT HEAD =           0.0000         CONSTANT HEAD =           0.0000
     HEAD DEP BOUNDS =           0.0000       HEAD DEP BOUNDS =           0.0000
      STREAM LEAKAGE =    29428652.0000        STREAM LEAKAGE =           0.2031

            TOTAL IN =    43209900.0000              TOTAL IN =           0.2468

          OUT:                                     OUT:
          ----                                     ----
             STORAGE =    15936875.0000               STORAGE =       2.5284E-02
       CONSTANT HEAD =           0.0000         CONSTANT HEAD =           0.0000
     HEAD DEP BOUNDS =    27272168.0000       HEAD DEP BOUNDS =           0.2214
      STREAM LEAKAGE =           0.0000        STREAM LEAKAGE =           0.0000

           TOTAL OUT =    43209044.0000             TOTAL OUT =           0.2467

            IN - OUT =         856.0000              IN - OUT =       1.3854E-04

 PERCENT DISCREPANCY =           0.00     PERCENT DISCREPANCY =           0.06






          TIME SUMMARY AT END OF TIME STEP  30 IN STRESS PERIOD   32
                    SECONDS     MINUTES      HOURS       DAYS        YEARS
                    -----------------------------------------------------------
   TIME STEP LENGTH 2.49961E+05  4166.0      69.434      2.8931     7.92080E-03
 STRESS PERIOD TIME 2.59200E+06  43200.      720.00      30.000     8.21355E-02
         TOTAL TIME 8.29440E+07 1.38240E+06  23040.      960.00      2.6283    
1
1
                            STRESS PERIOD NO.   33, LENGTH =   2592000.    
                            -----------------------------------------------

                              NUMBER OF TIME STEPS =    30

                               MULTIPLIER FOR DELT =     1.100

                            INITIAL TIME STEP SIZE =   15757.40    

 REUSING NON-PARAMETER GHB CELLS FROM LAST STRESS PERIOD

      7 GHB CELLS



 CLASSIFICATION & COUNT OF STREAM SEGMENTS BASED ON SOURCE OF INFLOW:

                HEADWATER     DIVERSION     RECEIVES TRIBUTARY FLOW
                ---------     ---------     -----------------------
                     1              0               0



                    INPUT DATA FOR EACH STREAM SEGMENT
 ---------------------------------------------------------------------------------------------

 SEGMENT    SEG.     INFLOW   OVERLAND   STREAM    STREAM   ICALC  OUTFLOW  DIVERSION PRIORITY
    NO.    LENGTH     RATE     RUNOFF      ET       PPT.    METH.  TO SEG.  FROM SEG.    NO.

      1  2.000E+04 2.070E+00 0.000E+00 0.000E+00 0.000E+00    2        0        0        0


         STREAMBED PROPERTIES AND STREAM DIMENSIONS

 SEGMENT     BED HYD. COND.      BED THICKNESS     ELEV.-TOP OF BED     WIDTH OF STREAM     DEPTH OF STREAM    STREAM ROUGHNESS
    No.     UPPER     LOWER     UPPER     LOWER     UPPER     LOWER     UPPER     LOWER     UPPER     LOWER   CHANNEL      BANK

     1  3.500E-07 3.500E-07                                                                                 3.000E-02 4.000E-02

  EIGHT POINT CROSS-SECTION DATA FOR SEGMENTS WITH ICALC = 2
    X VALUES X VALUES START FROM LEFT SIDE LOOKING DOWNSTREAM

     SEGMENT NO.        X1        X2        X3        X4        X5        X6        X7        X8
            1      0.000E+00 2.000E+00 4.000E+00 6.000E+00 8.000E+00 1.000E+01 1.200E+01 1.400E+01

    Z VALUES ARE RELATIVE TO STREAMBED ELEVATION

     SEGMENT NO.          Z1        Z2        Z3        Z4        Z5        Z6        Z7        Z8
            1      6.000E+00 4.500E+00 3.500E+00 0.000E+00 3.000E-01 3.500E+00 4.500E+00 6.000E+00



 
 SOLVING FOR HEAD 

 NO OUTPUT CONTROL FOR STRESS PERIOD   33   TIME STEP   1
 
 SOLVING FOR HEAD 

 NO OUTPUT CONTROL FOR STRESS PERIOD   33   TIME STEP   2
 
 SOLVING FOR HEAD 

 NO OUTPUT CONTROL FOR STRESS PERIOD   33   TIME STEP   3
 
 SOLVING FOR HEAD 

 NO OUTPUT CONTROL FOR STRESS PERIOD   33   TIME STEP   4
 
 SOLVING FOR HEAD 

 NO OUTPUT CONTROL FOR STRESS PERIOD   33   TIME STEP   5
 
 SOLVING FOR HEAD 

 NO OUTPUT CONTROL FOR STRESS PERIOD   33   TIME STEP   6
 
 SOLVING FOR HEAD 

 NO OUTPUT CONTROL FOR STRESS PERIOD   33   TIME STEP   7
 
 SOLVING FOR HEAD 

 NO OUTPUT CONTROL FOR STRESS PERIOD   33   TIME STEP   8
 
 SOLVING FOR HEAD 

 NO OUTPUT CONTROL FOR STRESS PERIOD   33   TIME STEP   9
 
 SOLVING FOR HEAD 

 NO OUTPUT CONTROL FOR STRESS PERIOD   33   TIME STEP  10
 
 SOLVING FOR HEAD 

 NO OUTPUT CONTROL FOR STRESS PERIOD   33   TIME STEP  11
 
 SOLVING FOR HEAD 

 NO OUTPUT CONTROL FOR STRESS PERIOD   33   TIME STEP  12
 
 SOLVING FOR HEAD 

 NO OUTPUT CONTROL FOR STRESS PERIOD   33   TIME STEP  13
 
 SOLVING FOR HEAD 

 NO OUTPUT CONTROL FOR STRESS PERIOD   33   TIME STEP  14
 
 SOLVING FOR HEAD 

 NO OUTPUT CONTROL FOR STRESS PERIOD   33   TIME STEP  15
 
 SOLVING FOR HEAD 

 NO OUTPUT CONTROL FOR STRESS PERIOD   33   TIME STEP  16
 
 SOLVING FOR HEAD 

 NO OUTPUT CONTROL FOR STRESS PERIOD   33   TIME STEP  17
 
 SOLVING FOR HEAD 

 NO OUTPUT CONTROL FOR STRESS PERIOD   33   TIME STEP  18
 
 SOLVING FOR HEAD 

 NO OUTPUT CONTROL FOR STRESS PERIOD   33   TIME STEP  19
 
 SOLVING FOR HEAD 

 NO OUTPUT CONTROL FOR STRESS PERIOD   33   TIME STEP  20
 
 SOLVING FOR HEAD 

 NO OUTPUT CONTROL FOR STRESS PERIOD   33   TIME STEP  21
 
 SOLVING FOR HEAD 

 NO OUTPUT CONTROL FOR STRESS PERIOD   33   TIME STEP  22
 
 SOLVING FOR HEAD 

 NO OUTPUT CONTROL FOR STRESS PERIOD   33   TIME STEP  23
 
 SOLVING FOR HEAD 

 NO OUTPUT CONTROL FOR STRESS PERIOD   33   TIME STEP  24
 
 SOLVING FOR HEAD 

 NO OUTPUT CONTROL FOR STRESS PERIOD   33   TIME STEP  25
 
 SOLVING FOR HEAD 

 NO OUTPUT CONTROL FOR STRESS PERIOD   33   TIME STEP  26
 
 SOLVING FOR HEAD 

 NO OUTPUT CONTROL FOR STRESS PERIOD   33   TIME STEP  27
 
 SOLVING FOR HEAD 

 NO OUTPUT CONTROL FOR STRESS PERIOD   33   TIME STEP  28
 
 SOLVING FOR HEAD 

 NO OUTPUT CONTROL FOR STRESS PERIOD   33   TIME STEP  29
 
 SOLVING FOR HEAD 

 NO OUTPUT CONTROL FOR STRESS PERIOD   33   TIME STEP  30
1
  VOLUMETRIC BUDGET FOR UNSATURATED ZONE BENEATH STREAMS AT END OF TIME STEP  30 STRESS PERIOD  33
  ------------------------------------------------------------------------------------------------

    CUMULATIVE VOLUMES             L**3    RATES FOR THIS TIME STEP         L**3/T
    ------------------                     ------------------------


          STREAM LOSS =     30079614.0000            STREAM LOSS =        9.0014E-02
    CHANGE IN STORAGE =       345600.7812      CHANGE IN STORAGE =       -1.7041E-03
       RECHARGE TO GW =     29732630.0000         RECHARGE TO GW =        9.1724E-02

             TOTAL IN =     30079614.0000               TOTAL IN =        9.1718E-02

            TOTAL OUT =     30078230.0000              TOTAL OUT =        9.1724E-02

             IN - OUT =         1384.0000               IN - OUT =       -5.7125E-06

  PERCENT DISCREPANCY =            0.00      PERCENT DISCREPANCY =             0.00



1
  VOLUMETRIC BUDGET FOR ENTIRE MODEL AT END OF TIME STEP 30 IN STRESS PERIOD  33
  ------------------------------------------------------------------------------

     CUMULATIVE VOLUMES      L**3       RATES FOR THIS TIME STEP      L**3/T
     ------------------                 ------------------------

           IN:                                      IN:
           ---                                      ---
             STORAGE =    14057731.0000               STORAGE =           0.1233
       CONSTANT HEAD =           0.0000         CONSTANT HEAD =           0.0000
     HEAD DEP BOUNDS =           0.0000       HEAD DEP BOUNDS =           0.0000
      STREAM LEAKAGE =    29732372.0000        STREAM LEAKAGE =       9.1724E-02

            TOTAL IN =    43790104.0000              TOTAL IN =           0.2151

          OUT:                                     OUT:
          ----                                     ----
             STORAGE =    15950722.0000               STORAGE =           0.0000
       CONSTANT HEAD =           0.0000         CONSTANT HEAD =           0.0000
     HEAD DEP BOUNDS =    27838484.0000       HEAD DEP BOUNDS =           0.2149
      STREAM LEAKAGE =           0.0000        STREAM LEAKAGE =           0.0000

           TOTAL OUT =    43789208.0000             TOTAL OUT =           0.2149

            IN - OUT =         896.0000              IN - OUT =       1.2127E-04

 PERCENT DISCREPANCY =           0.00     PERCENT DISCREPANCY =           0.06






          TIME SUMMARY AT END OF TIME STEP  30 IN STRESS PERIOD   33
                    SECONDS     MINUTES      HOURS       DAYS        YEARS
                    -----------------------------------------------------------
   TIME STEP LENGTH 2.49961E+05  4166.0      69.434      2.8931     7.92080E-03
 STRESS PERIOD TIME 2.59200E+06  43200.      720.00      30.000     8.21355E-02
         TOTAL TIME 8.55360E+07 1.42560E+06  23760.      990.00      2.7105    
1
1
                            STRESS PERIOD NO.   34, LENGTH =   2592000.    
                            -----------------------------------------------

                              NUMBER OF TIME STEPS =    30

                               MULTIPLIER FOR DELT =     1.100

                            INITIAL TIME STEP SIZE =   15757.40    

 REUSING NON-PARAMETER GHB CELLS FROM LAST STRESS PERIOD

      7 GHB CELLS



 CLASSIFICATION & COUNT OF STREAM SEGMENTS BASED ON SOURCE OF INFLOW:

                HEADWATER     DIVERSION     RECEIVES TRIBUTARY FLOW
                ---------     ---------     -----------------------
                     1              0               0



                    INPUT DATA FOR EACH STREAM SEGMENT
 ---------------------------------------------------------------------------------------------

 SEGMENT    SEG.     INFLOW   OVERLAND   STREAM    STREAM   ICALC  OUTFLOW  DIVERSION PRIORITY
    NO.    LENGTH     RATE     RUNOFF      ET       PPT.    METH.  TO SEG.  FROM SEG.    NO.

      1  2.000E+04 3.500E-01 0.000E+00 0.000E+00 0.000E+00    2        0        0        0


         STREAMBED PROPERTIES AND STREAM DIMENSIONS

 SEGMENT     BED HYD. COND.      BED THICKNESS     ELEV.-TOP OF BED     WIDTH OF STREAM     DEPTH OF STREAM    STREAM ROUGHNESS
    No.     UPPER     LOWER     UPPER     LOWER     UPPER     LOWER     UPPER     LOWER     UPPER     LOWER   CHANNEL      BANK

     1  3.500E-07 3.500E-07                                                                                 3.000E-02 4.000E-02

  EIGHT POINT CROSS-SECTION DATA FOR SEGMENTS WITH ICALC = 2
    X VALUES X VALUES START FROM LEFT SIDE LOOKING DOWNSTREAM

     SEGMENT NO.        X1        X2        X3        X4        X5        X6        X7        X8
            1      0.000E+00 2.000E+00 4.000E+00 6.000E+00 8.000E+00 1.000E+01 1.200E+01 1.400E+01

    Z VALUES ARE RELATIVE TO STREAMBED ELEVATION

     SEGMENT NO.          Z1        Z2        Z3        Z4        Z5        Z6        Z7        Z8
            1      6.000E+00 4.500E+00 3.500E+00 0.000E+00 3.000E-01 3.500E+00 4.500E+00 6.000E+00



 
 SOLVING FOR HEAD 

 NO OUTPUT CONTROL FOR STRESS PERIOD   34   TIME STEP   1
 
 SOLVING FOR HEAD 

 NO OUTPUT CONTROL FOR STRESS PERIOD   34   TIME STEP   2
 
 SOLVING FOR HEAD 

 NO OUTPUT CONTROL FOR STRESS PERIOD   34   TIME STEP   3
 
 SOLVING FOR HEAD 

 NO OUTPUT CONTROL FOR STRESS PERIOD   34   TIME STEP   4
 
 SOLVING FOR HEAD 

 NO OUTPUT CONTROL FOR STRESS PERIOD   34   TIME STEP   5
 
 SOLVING FOR HEAD 

 NO OUTPUT CONTROL FOR STRESS PERIOD   34   TIME STEP   6
 
 SOLVING FOR HEAD 

 NO OUTPUT CONTROL FOR STRESS PERIOD   34   TIME STEP   7
 
 SOLVING FOR HEAD 

 NO OUTPUT CONTROL FOR STRESS PERIOD   34   TIME STEP   8
 
 SOLVING FOR HEAD 

 NO OUTPUT CONTROL FOR STRESS PERIOD   34   TIME STEP   9
 
 SOLVING FOR HEAD 

 NO OUTPUT CONTROL FOR STRESS PERIOD   34   TIME STEP  10
 
 SOLVING FOR HEAD 

 NO OUTPUT CONTROL FOR STRESS PERIOD   34   TIME STEP  11
 
 SOLVING FOR HEAD 

 NO OUTPUT CONTROL FOR STRESS PERIOD   34   TIME STEP  12
 
 SOLVING FOR HEAD 

 NO OUTPUT CONTROL FOR STRESS PERIOD   34   TIME STEP  13
 
 SOLVING FOR HEAD 

 NO OUTPUT CONTROL FOR STRESS PERIOD   34   TIME STEP  14
 
 SOLVING FOR HEAD 

 NO OUTPUT CONTROL FOR STRESS PERIOD   34   TIME STEP  15
 
 SOLVING FOR HEAD 

 NO OUTPUT CONTROL FOR STRESS PERIOD   34   TIME STEP  16
 
 SOLVING FOR HEAD 

 NO OUTPUT CONTROL FOR STRESS PERIOD   34   TIME STEP  17
 
 SOLVING FOR HEAD 

 NO OUTPUT CONTROL FOR STRESS PERIOD   34   TIME STEP  18
 
 SOLVING FOR HEAD 

 NO OUTPUT CONTROL FOR STRESS PERIOD   34   TIME STEP  19
 
 SOLVING FOR HEAD 

 NO OUTPUT CONTROL FOR STRESS PERIOD   34   TIME STEP  20
 
 SOLVING FOR HEAD 

 NO OUTPUT CONTROL FOR STRESS PERIOD   34   TIME STEP  21
 
 SOLVING FOR HEAD 

 NO OUTPUT CONTROL FOR STRESS PERIOD   34   TIME STEP  22
 
 SOLVING FOR HEAD 

 NO OUTPUT CONTROL FOR STRESS PERIOD   34   TIME STEP  23
 
 SOLVING FOR HEAD 

 NO OUTPUT CONTROL FOR STRESS PERIOD   34   TIME STEP  24
 
 SOLVING FOR HEAD 

 NO OUTPUT CONTROL FOR STRESS PERIOD   34   TIME STEP  25
 
 SOLVING FOR HEAD 

 NO OUTPUT CONTROL FOR STRESS PERIOD   34   TIME STEP  26
 
 SOLVING FOR HEAD 

 NO OUTPUT CONTROL FOR STRESS PERIOD   34   TIME STEP  27
 
 SOLVING FOR HEAD 

 NO OUTPUT CONTROL FOR STRESS PERIOD   34   TIME STEP  28
 
 SOLVING FOR HEAD 

 NO OUTPUT CONTROL FOR STRESS PERIOD   34   TIME STEP  29
 
 SOLVING FOR HEAD 

 NO OUTPUT CONTROL FOR STRESS PERIOD   34   TIME STEP  30
1
  VOLUMETRIC BUDGET FOR UNSATURATED ZONE BENEATH STREAMS AT END OF TIME STEP  30 STRESS PERIOD  34
  ------------------------------------------------------------------------------------------------

    CUMULATIVE VOLUMES             L**3    RATES FOR THIS TIME STEP         L**3/T
    ------------------                     ------------------------


          STREAM LOSS =     30172962.0000            STREAM LOSS =        3.5992E-02
    CHANGE IN STORAGE =       284102.0625      CHANGE IN STORAGE =       -1.1960E-03
       RECHARGE TO GW =     29887400.0000         RECHARGE TO GW =        3.7188E-02

             TOTAL IN =     30172962.0000               TOTAL IN =        3.7188E-02

            TOTAL OUT =     30171502.0000              TOTAL OUT =        3.7188E-02

             IN - OUT =         1460.0000               IN - OUT =        1.0594E-08

  PERCENT DISCREPANCY =            0.00      PERCENT DISCREPANCY =             0.00



1
  VOLUMETRIC BUDGET FOR ENTIRE MODEL AT END OF TIME STEP 30 IN STRESS PERIOD  34
  ------------------------------------------------------------------------------

     CUMULATIVE VOLUMES      L**3       RATES FOR THIS TIME STEP      L**3/T
     ------------------                 ------------------------

           IN:                                      IN:
           ---                                      ---
             STORAGE =    14453075.0000               STORAGE =           0.1718
       CONSTANT HEAD =           0.0000         CONSTANT HEAD =           0.0000
     HEAD DEP BOUNDS =           0.0000       HEAD DEP BOUNDS =           0.0000
      STREAM LEAKAGE =    29887162.0000        STREAM LEAKAGE =       3.7188E-02

            TOTAL IN =    44340236.0000              TOTAL IN =           0.2090

          OUT:                                     OUT:
          ----                                     ----
             STORAGE =    15950722.0000               STORAGE =           0.0000
       CONSTANT HEAD =           0.0000         CONSTANT HEAD =           0.0000
     HEAD DEP BOUNDS =    28388582.0000       HEAD DEP BOUNDS =           0.2089
      STREAM LEAKAGE =           0.0000        STREAM LEAKAGE =           0.0000

           TOTAL OUT =    44339304.0000             TOTAL OUT =           0.2089

            IN - OUT =         932.0000              IN - OUT =       8.4728E-05

 PERCENT DISCREPANCY =           0.00     PERCENT DISCREPANCY =           0.04






          TIME SUMMARY AT END OF TIME STEP  30 IN STRESS PERIOD   34
                    SECONDS     MINUTES      HOURS       DAYS        YEARS
                    -----------------------------------------------------------
   TIME STEP LENGTH 2.49961E+05  4166.0      69.434      2.8931     7.92080E-03
 STRESS PERIOD TIME 2.59200E+06  43200.      720.00      30.000     8.21355E-02
         TOTAL TIME 8.81280E+07 1.46880E+06  24480.      1020.0      2.7926    
1
1
                            STRESS PERIOD NO.   35, LENGTH =   2592000.    
                            -----------------------------------------------

                              NUMBER OF TIME STEPS =    30

                               MULTIPLIER FOR DELT =     1.100

                            INITIAL TIME STEP SIZE =   15757.40    

 REUSING NON-PARAMETER GHB CELLS FROM LAST STRESS PERIOD

      7 GHB CELLS



 CLASSIFICATION & COUNT OF STREAM SEGMENTS BASED ON SOURCE OF INFLOW:

                HEADWATER     DIVERSION     RECEIVES TRIBUTARY FLOW
                ---------     ---------     -----------------------
                     1              0               0



                    INPUT DATA FOR EACH STREAM SEGMENT
 ---------------------------------------------------------------------------------------------

 SEGMENT    SEG.     INFLOW   OVERLAND   STREAM    STREAM   ICALC  OUTFLOW  DIVERSION PRIORITY
    NO.    LENGTH     RATE     RUNOFF      ET       PPT.    METH.  TO SEG.  FROM SEG.    NO.

      1  2.000E+04 5.300E-02 0.000E+00 0.000E+00 0.000E+00    2        0        0        0


         STREAMBED PROPERTIES AND STREAM DIMENSIONS

 SEGMENT     BED HYD. COND.      BED THICKNESS     ELEV.-TOP OF BED     WIDTH OF STREAM     DEPTH OF STREAM    STREAM ROUGHNESS
    No.     UPPER     LOWER     UPPER     LOWER     UPPER     LOWER     UPPER     LOWER     UPPER     LOWER   CHANNEL      BANK

     1  3.500E-07 3.500E-07                                                                                 3.000E-02 4.000E-02

  EIGHT POINT CROSS-SECTION DATA FOR SEGMENTS WITH ICALC = 2
    X VALUES X VALUES START FROM LEFT SIDE LOOKING DOWNSTREAM

     SEGMENT NO.        X1        X2        X3        X4        X5        X6        X7        X8
            1      0.000E+00 2.000E+00 4.000E+00 6.000E+00 8.000E+00 1.000E+01 1.200E+01 1.400E+01

    Z VALUES ARE RELATIVE TO STREAMBED ELEVATION

     SEGMENT NO.          Z1        Z2        Z3        Z4        Z5        Z6        Z7        Z8
            1      6.000E+00 4.500E+00 3.500E+00 0.000E+00 3.000E-01 3.500E+00 4.500E+00 6.000E+00



 
 SOLVING FOR HEAD 

 NO OUTPUT CONTROL FOR STRESS PERIOD   35   TIME STEP   1
 
 SOLVING FOR HEAD 

 NO OUTPUT CONTROL FOR STRESS PERIOD   35   TIME STEP   2
 
 SOLVING FOR HEAD 

 NO OUTPUT CONTROL FOR STRESS PERIOD   35   TIME STEP   3
 
 SOLVING FOR HEAD 

 NO OUTPUT CONTROL FOR STRESS PERIOD   35   TIME STEP   4
 
 SOLVING FOR HEAD 

 NO OUTPUT CONTROL FOR STRESS PERIOD   35   TIME STEP   5
 
 SOLVING FOR HEAD 

 NO OUTPUT CONTROL FOR STRESS PERIOD   35   TIME STEP   6
 
 SOLVING FOR HEAD 

 NO OUTPUT CONTROL FOR STRESS PERIOD   35   TIME STEP   7
 
 SOLVING FOR HEAD 

 NO OUTPUT CONTROL FOR STRESS PERIOD   35   TIME STEP   8
 
 SOLVING FOR HEAD 

 NO OUTPUT CONTROL FOR STRESS PERIOD   35   TIME STEP   9
 
 SOLVING FOR HEAD 

 NO OUTPUT CONTROL FOR STRESS PERIOD   35   TIME STEP  10
 
 SOLVING FOR HEAD 

 NO OUTPUT CONTROL FOR STRESS PERIOD   35   TIME STEP  11
 
 SOLVING FOR HEAD 

 NO OUTPUT CONTROL FOR STRESS PERIOD   35   TIME STEP  12
 
 SOLVING FOR HEAD 

 NO OUTPUT CONTROL FOR STRESS PERIOD   35   TIME STEP  13
 
 SOLVING FOR HEAD 

 NO OUTPUT CONTROL FOR STRESS PERIOD   35   TIME STEP  14
 
 SOLVING FOR HEAD 

 NO OUTPUT CONTROL FOR STRESS PERIOD   35   TIME STEP  15
 
 SOLVING FOR HEAD 

 NO OUTPUT CONTROL FOR STRESS PERIOD   35   TIME STEP  16
 
 SOLVING FOR HEAD 

 NO OUTPUT CONTROL FOR STRESS PERIOD   35   TIME STEP  17
 
 SOLVING FOR HEAD 

 NO OUTPUT CONTROL FOR STRESS PERIOD   35   TIME STEP  18
 
 SOLVING FOR HEAD 

 NO OUTPUT CONTROL FOR STRESS PERIOD   35   TIME STEP  19
 
 SOLVING FOR HEAD 

 NO OUTPUT CONTROL FOR STRESS PERIOD   35   TIME STEP  20
 
 SOLVING FOR HEAD 

 NO OUTPUT CONTROL FOR STRESS PERIOD   35   TIME STEP  21
 
 SOLVING FOR HEAD 

 NO OUTPUT CONTROL FOR STRESS PERIOD   35   TIME STEP  22
 
 SOLVING FOR HEAD 

 NO OUTPUT CONTROL FOR STRESS PERIOD   35   TIME STEP  23
 
 SOLVING FOR HEAD 

 NO OUTPUT CONTROL FOR STRESS PERIOD   35   TIME STEP  24
 
 SOLVING FOR HEAD 

 NO OUTPUT CONTROL FOR STRESS PERIOD   35   TIME STEP  25
 
 SOLVING FOR HEAD 

 NO OUTPUT CONTROL FOR STRESS PERIOD   35   TIME STEP  26
 
 SOLVING FOR HEAD 

 NO OUTPUT CONTROL FOR STRESS PERIOD   35   TIME STEP  27
 
 SOLVING FOR HEAD 

 NO OUTPUT CONTROL FOR STRESS PERIOD   35   TIME STEP  28
 
 SOLVING FOR HEAD 

 NO OUTPUT CONTROL FOR STRESS PERIOD   35   TIME STEP  29
 
 SOLVING FOR HEAD 

 OUTPUT CONTROL FOR STRESS PERIOD   35   TIME STEP  30
    PRINT HEAD FOR ALL LAYERS
    PRINT BUDGET
    SAVE BUDGET

  HEAD DEP BOUNDS   PERIOD   35   STEP  30
 BOUNDARY      1   LAYER   1   ROW     1   COL   100   RATE   -3.047183E-02
 BOUNDARY      2   LAYER   1   ROW     2   COL   100   RATE   -3.047043E-02
 BOUNDARY      3   LAYER   1   ROW     3   COL   100   RATE   -3.017083E-02
 BOUNDARY      4   LAYER   1   ROW     4   COL   100   RATE   -2.146721E-02
 BOUNDARY      5   LAYER   1   ROW     5   COL   100   RATE   -3.017083E-02
 BOUNDARY      6   LAYER   1   ROW     6   COL   100   RATE   -3.047043E-02
 BOUNDARY      7   LAYER   1   ROW     7   COL   100   RATE   -3.047183E-02



 STREAM LISTING     PERIOD     35   STEP       30

 LAYER ROW COL. STREAM  RCH.   FLOW INTO    STREAM     FLOW OUT OF   OVRLND.    DIRECT     STREAM      STREAM      STREAM     STREAM  STREAMBED   FLOW TO   CHNG. UNSAT. 
                SEG.NO.  NO.   STRM. RCH.    LOSS       STRM. RCH.   RUNOFF     PRECIP       ET         HEAD        DEPTH      WIDTH  CONDCTNC.   WAT. TAB.   STORAGE

   1    4    1     1     1    5.3000E-02  1.8175E-04   5.2818E-02  0.000E+00  0.000E+00  0.000E+00  1.40076E+02  2.264E-01  1.639E+00  2.502E-04  2.660E-04 -8.422E-05
   1    4    2     1     2    5.2818E-02  1.8144E-04   5.2637E-02  0.000E+00  0.000E+00  0.000E+00  1.39776E+02  2.261E-01  1.637E+00  2.499E-04  2.624E-04 -8.092E-05
   1    4    3     1     3    5.2637E-02  1.8114E-04   5.2456E-02  0.000E+00  0.000E+00  0.000E+00  1.39476E+02  2.258E-01  1.635E+00  2.496E-04  2.558E-04 -7.470E-05
   1    4    4     1     4    5.2456E-02  1.8083E-04   5.2275E-02  0.000E+00  0.000E+00  0.000E+00  1.39176E+02  2.255E-01  1.633E+00  2.492E-04  2.504E-04 -6.959E-05
   1    4    5     1     5    5.2275E-02  1.8052E-04   5.2094E-02  0.000E+00  0.000E+00  0.000E+00  1.38875E+02  2.253E-01  1.630E+00  2.489E-04  2.468E-04 -6.632E-05
   1    4    6     1     6    5.2094E-02  1.8022E-04   5.1914E-02  0.000E+00  0.000E+00  0.000E+00  1.38575E+02  2.250E-01  1.628E+00  2.486E-04  2.433E-04 -6.308E-05
   1    4    7     1     7    5.1914E-02  1.7991E-04   5.1734E-02  0.000E+00  0.000E+00  0.000E+00  1.38275E+02  2.247E-01  1.626E+00  2.483E-04  2.398E-04 -5.987E-05
   1    4    8     1     8    5.1734E-02  1.7960E-04   5.1555E-02  0.000E+00  0.000E+00  0.000E+00  1.37974E+02  2.244E-01  1.624E+00  2.479E-04  2.363E-04 -5.670E-05
   1    4    9     1     9    5.1555E-02  1.7929E-04   5.1375E-02  0.000E+00  0.000E+00  0.000E+00  1.37674E+02  2.241E-01  1.622E+00  2.476E-04  2.328E-04 -5.355E-05
   1    4   10     1    10    5.1375E-02  1.7899E-04   5.1196E-02  0.000E+00  0.000E+00  0.000E+00  1.37374E+02  2.238E-01  1.620E+00  2.473E-04  2.294E-04 -5.045E-05
   1    4   11     1    11    5.1196E-02  1.7868E-04   5.1018E-02  0.000E+00  0.000E+00  0.000E+00  1.37074E+02  2.235E-01  1.618E+00  2.470E-04  2.246E-04 -4.588E-05
   1    4   12     1    12    5.1018E-02  1.7837E-04   5.0839E-02  0.000E+00  0.000E+00  0.000E+00  1.36773E+02  2.232E-01  1.616E+00  2.466E-04  2.210E-04 -4.260E-05
   1    4   13     1    13    5.0839E-02  1.7807E-04   5.0661E-02  0.000E+00  0.000E+00  0.000E+00  1.36473E+02  2.229E-01  1.613E+00  2.463E-04  2.174E-04 -3.936E-05
   1    4   14     1    14    5.0661E-02  1.7776E-04   5.0483E-02  0.000E+00  0.000E+00  0.000E+00  1.36173E+02  2.226E-01  1.611E+00  2.460E-04  2.139E-04 -3.616E-05
   1    4   15     1    15    5.0483E-02  1.7746E-04   5.0306E-02  0.000E+00  0.000E+00  0.000E+00  1.35872E+02  2.223E-01  1.609E+00  2.457E-04  2.105E-04 -3.301E-05
   1    4   16     1    16    5.0306E-02  1.7715E-04   5.0129E-02  0.000E+00  0.000E+00  0.000E+00  1.35572E+02  2.220E-01  1.607E+00  2.453E-04  2.071E-04 -2.991E-05
   1    4   17     1    17    5.0129E-02  1.7684E-04   4.9952E-02  0.000E+00  0.000E+00  0.000E+00  1.35272E+02  2.217E-01  1.605E+00  2.450E-04  2.037E-04 -2.686E-05
   1    4   18     1    18    4.9952E-02  1.7654E-04   4.9775E-02  0.000E+00  0.000E+00  0.000E+00  1.34971E+02  2.214E-01  1.603E+00  2.447E-04  2.004E-04 -2.385E-05
   1    4   19     1    19    4.9775E-02  1.7623E-04   4.9599E-02  0.000E+00  0.000E+00  0.000E+00  1.34671E+02  2.211E-01  1.601E+00  2.444E-04  1.971E-04 -2.091E-05
   1    4   20     1    20    4.9599E-02  1.7592E-04   4.9423E-02  0.000E+00  0.000E+00  0.000E+00  1.34371E+02  2.209E-01  1.599E+00  2.440E-04  1.939E-04 -1.802E-05
   1    4   21     1    21    4.9423E-02  1.7562E-04   4.9248E-02  0.000E+00  0.000E+00  0.000E+00  1.34071E+02  2.206E-01  1.596E+00  2.437E-04  1.929E-04 -1.729E-05
   1    4   22     1    22    4.9248E-02  1.7531E-04   4.9072E-02  0.000E+00  0.000E+00  0.000E+00  1.33770E+02  2.203E-01  1.594E+00  2.434E-04  1.923E-04 -1.699E-05
   1    4   23     1    23    4.9072E-02  1.7501E-04   4.8897E-02  0.000E+00  0.000E+00  0.000E+00  1.33470E+02  2.200E-01  1.592E+00  2.431E-04  1.917E-04 -1.668E-05
   1    4   24     1    24    4.8897E-02  1.7470E-04   4.8723E-02  0.000E+00  0.000E+00  0.000E+00  1.33170E+02  2.197E-01  1.590E+00  2.427E-04  1.911E-04 -1.637E-05
   1    4   25     1    25    4.8723E-02  1.7439E-04   4.8548E-02  0.000E+00  0.000E+00  0.000E+00  1.32869E+02  2.194E-01  1.588E+00  2.424E-04  1.904E-04 -1.605E-05
   1    4   26     1    26    4.8548E-02  1.7409E-04   4.8374E-02  0.000E+00  0.000E+00  0.000E+00  1.32569E+02  2.191E-01  1.586E+00  2.421E-04  1.898E-04 -1.573E-05
   1    4   27     1    27    4.8374E-02  1.7378E-04   4.8200E-02  0.000E+00  0.000E+00  0.000E+00  1.32269E+02  2.188E-01  1.584E+00  2.418E-04  1.892E-04 -1.540E-05
   1    4   28     1    28    4.8200E-02  1.7348E-04   4.8027E-02  0.000E+00  0.000E+00  0.000E+00  1.31968E+02  2.185E-01  1.581E+00  2.414E-04  1.885E-04 -1.507E-05
   1    4   29     1    29    4.8027E-02  1.7317E-04   4.7854E-02  0.000E+00  0.000E+00  0.000E+00  1.31668E+02  2.182E-01  1.579E+00  2.411E-04  1.879E-04 -1.473E-05
   1    4   30     1    30    4.7854E-02  1.7286E-04   4.7681E-02  0.000E+00  0.000E+00  0.000E+00  1.31368E+02  2.179E-01  1.577E+00  2.408E-04  1.872E-04 -1.439E-05
   1    4   31     1    31    4.7681E-02  1.7256E-04   4.7508E-02  0.000E+00  0.000E+00  0.000E+00  1.31068E+02  2.176E-01  1.575E+00  2.405E-04  1.866E-04 -1.404E-05
   1    4   32     1    32    4.7508E-02  1.7225E-04   4.7336E-02  0.000E+00  0.000E+00  0.000E+00  1.30767E+02  2.173E-01  1.573E+00  2.401E-04  1.859E-04 -1.369E-05
   1    4   33     1    33    4.7336E-02  1.7195E-04   4.7164E-02  0.000E+00  0.000E+00  0.000E+00  1.30467E+02  2.170E-01  1.571E+00  2.398E-04  1.853E-04 -1.333E-05
   1    4   34     1    34    4.7164E-02  1.7164E-04   4.6992E-02  0.000E+00  0.000E+00  0.000E+00  1.30167E+02  2.167E-01  1.569E+00  2.395E-04  1.846E-04 -1.297E-05
   1    4   35     1    35    4.6992E-02  1.7134E-04   4.6821E-02  0.000E+00  0.000E+00  0.000E+00  1.29866E+02  2.164E-01  1.566E+00  2.392E-04  1.839E-04 -1.261E-05
   1    4   36     1    36    4.6821E-02  1.7103E-04   4.6650E-02  0.000E+00  0.000E+00  0.000E+00  1.29566E+02  2.161E-01  1.564E+00  2.388E-04  1.833E-04 -1.225E-05
   1    4   37     1    37    4.6650E-02  1.7072E-04   4.6479E-02  0.000E+00  0.000E+00  0.000E+00  1.29266E+02  2.158E-01  1.562E+00  2.385E-04  1.826E-04 -1.188E-05
   1    4   38     1    38    4.6479E-02  1.7042E-04   4.6309E-02  0.000E+00  0.000E+00  0.000E+00  1.28966E+02  2.155E-01  1.560E+00  2.382E-04  1.819E-04 -1.151E-05
   1    4   39     1    39    4.6309E-02  1.7011E-04   4.6139E-02  0.000E+00  0.000E+00  0.000E+00  1.28665E+02  2.152E-01  1.558E+00  2.378E-04  1.813E-04 -1.114E-05
   1    4   40     1    40    4.6139E-02  1.6981E-04   4.5969E-02  0.000E+00  0.000E+00  0.000E+00  1.28365E+02  2.149E-01  1.556E+00  2.375E-04  1.806E-04 -1.078E-05
   1    4   41     1    41    4.5969E-02  1.6950E-04   4.5800E-02  0.000E+00  0.000E+00  0.000E+00  1.28065E+02  2.146E-01  1.554E+00  2.372E-04  1.799E-04 -1.042E-05
   1    4   42     1    42    4.5800E-02  1.6920E-04   4.5630E-02  0.000E+00  0.000E+00  0.000E+00  1.27764E+02  2.143E-01  1.551E+00  2.369E-04  1.793E-04 -1.008E-05
   1    4   43     1    43    4.5630E-02  1.6889E-04   4.5461E-02  0.000E+00  0.000E+00  0.000E+00  1.27464E+02  2.140E-01  1.549E+00  2.365E-04  1.786E-04 -9.746E-06
   1    4   44     1    44    4.5461E-02  1.6859E-04   4.5293E-02  0.000E+00  0.000E+00  0.000E+00  1.27164E+02  2.138E-01  1.547E+00  2.362E-04  1.780E-04 -9.411E-06
   1    4   45     1    45    4.5293E-02  1.6828E-04   4.5125E-02  0.000E+00  0.000E+00  0.000E+00  1.26863E+02  2.135E-01  1.545E+00  2.359E-04  1.774E-04 -9.076E-06
   1    4   46     1    46    4.5125E-02  1.6798E-04   4.4957E-02  0.000E+00  0.000E+00  0.000E+00  1.26563E+02  2.132E-01  1.543E+00  2.355E-04  1.767E-04 -8.744E-06
   1    4   47     1    47    4.4957E-02  1.6767E-04   4.4789E-02  0.000E+00  0.000E+00  0.000E+00  1.26263E+02  2.129E-01  1.541E+00  2.352E-04  1.761E-04 -8.414E-06
   1    4   48     1    48    4.4789E-02  1.6737E-04   4.4622E-02  0.000E+00  0.000E+00  0.000E+00  1.25963E+02  2.126E-01  1.539E+00  2.349E-04  1.755E-04 -8.086E-06
   1    4   49     1    49    4.4622E-02  1.6706E-04   4.4455E-02  0.000E+00  0.000E+00  0.000E+00  1.25662E+02  2.123E-01  1.536E+00  2.346E-04  1.748E-04 -7.762E-06
   1    4   50     1    50    4.4455E-02  1.6676E-04   4.4288E-02  0.000E+00  0.000E+00  0.000E+00  1.25362E+02  2.120E-01  1.534E+00  2.342E-04  1.747E-04 -7.965E-06
   1    4   51     1    51    4.4288E-02  1.6645E-04   4.4121E-02  0.000E+00  0.000E+00  0.000E+00  1.25062E+02  2.117E-01  1.532E+00  2.339E-04  1.741E-04 -7.649E-06
   1    4   52     1    52    4.4121E-02  1.6615E-04   4.3955E-02  0.000E+00  0.000E+00  0.000E+00  1.24761E+02  2.114E-01  1.530E+00  2.336E-04  1.735E-04 -7.338E-06
   1    4   53     1    53    4.3955E-02  1.6584E-04   4.3789E-02  0.000E+00  0.000E+00  0.000E+00  1.24461E+02  2.111E-01  1.528E+00  2.332E-04  1.729E-04 -7.031E-06
   1    4   54     1    54    4.3789E-02  1.6554E-04   4.3624E-02  0.000E+00  0.000E+00  0.000E+00  1.24161E+02  2.108E-01  1.526E+00  2.329E-04  1.671E-04 -1.599E-06
   1    4   55     1    55    4.3624E-02  1.6523E-04   4.3459E-02  0.000E+00  0.000E+00  0.000E+00  1.23860E+02  2.105E-01  1.523E+00  2.326E-04  1.667E-04 -1.435E-06
   1    4   56     1    56    4.3459E-02  1.6493E-04   4.3294E-02  0.000E+00  0.000E+00  0.000E+00  1.23560E+02  2.102E-01  1.521E+00  2.322E-04  1.662E-04 -1.276E-06
   1    4   57     1    57    4.3294E-02  1.6462E-04   4.3129E-02  0.000E+00  0.000E+00  0.000E+00  1.23260E+02  2.099E-01  1.519E+00  2.319E-04  1.657E-04 -1.124E-06
   1    4   58     1    58    4.3129E-02  1.6432E-04   4.2965E-02  0.000E+00  0.000E+00  0.000E+00  1.22960E+02  2.096E-01  1.517E+00  2.316E-04  1.653E-04 -9.800E-07
   1    4   59     1    59    4.2965E-02  1.6401E-04   4.2801E-02  0.000E+00  0.000E+00  0.000E+00  1.22659E+02  2.093E-01  1.515E+00  2.312E-04  1.649E-04 -8.428E-07
   1    4   60     1    60    4.2801E-02  1.6371E-04   4.2637E-02  0.000E+00  0.000E+00  0.000E+00  1.22359E+02  2.090E-01  1.513E+00  2.309E-04  1.644E-04 -7.129E-07
   1    4   61     1    61    4.2637E-02  1.6340E-04   4.2474E-02  0.000E+00  0.000E+00  0.000E+00  1.22059E+02  2.087E-01  1.510E+00  2.306E-04  1.640E-04 -5.886E-07
   1    4   62     1    62    4.2474E-02  1.6310E-04   4.2310E-02  0.000E+00  0.000E+00  0.000E+00  1.21758E+02  2.084E-01  1.508E+00  2.302E-04  1.636E-04 -4.714E-07
   1    4   63     1    63    4.2310E-02  1.6279E-04   4.2148E-02  0.000E+00  0.000E+00  0.000E+00  1.21458E+02  2.081E-01  1.506E+00  2.299E-04  1.632E-04 -3.636E-07
   1    4   64     1    64    4.2148E-02  1.6249E-04   4.1985E-02  0.000E+00  0.000E+00  0.000E+00  1.21158E+02  2.078E-01  1.504E+00  2.296E-04  1.628E-04 -2.652E-07
   1    4   65     1    65    4.1985E-02  1.6219E-04   4.1823E-02  0.000E+00  0.000E+00  0.000E+00  1.20857E+02  2.075E-01  1.502E+00  2.292E-04  1.624E-04 -1.767E-07
   1    4   66     1    66    4.1823E-02  1.6188E-04   4.1661E-02  0.000E+00  0.000E+00  0.000E+00  1.20557E+02  2.072E-01  1.499E+00  2.289E-04  1.620E-04 -9.914E-08
   1    4   67     1    67    4.1661E-02  1.6158E-04   4.1500E-02  0.000E+00  0.000E+00  0.000E+00  1.20257E+02  2.069E-01  1.497E+00  2.286E-04  1.616E-04 -3.334E-08
   1    4   68     1    68    4.1500E-02  1.6127E-04   4.1338E-02  0.000E+00  0.000E+00  0.000E+00  1.19957E+02  2.066E-01  1.495E+00  2.283E-04  1.613E-04  1.824E-08
   1    4   69     1    69    4.1338E-02  1.6097E-04   4.1177E-02  0.000E+00  0.000E+00  0.000E+00  1.19656E+02  2.063E-01  1.493E+00  2.279E-04  1.627E-04 -1.724E-06
   1    4   70     1    70    4.1177E-02  1.6066E-04   4.1017E-02  0.000E+00  0.000E+00  0.000E+00  1.19356E+02  2.060E-01  1.491E+00  2.276E-04  1.665E-04 -5.843E-06
   1    4   71     1    71    4.1017E-02  1.6036E-04   4.0856E-02  0.000E+00  0.000E+00  0.000E+00  1.19056E+02  2.057E-01  1.489E+00  2.273E-04  1.706E-04 -1.022E-05
   1    4   72     1    72    4.0856E-02  1.6006E-04   4.0696E-02  0.000E+00  0.000E+00  0.000E+00  1.18755E+02  2.054E-01  1.486E+00  2.269E-04  1.749E-04 -1.485E-05
   1    4   73     1    73    4.0696E-02  1.5975E-04   4.0536E-02  0.000E+00  0.000E+00  0.000E+00  1.18455E+02  2.050E-01  1.484E+00  2.266E-04  1.795E-04 -1.974E-05
   1    4   74     1    74    4.0536E-02  1.5945E-04   4.0377E-02  0.000E+00  0.000E+00  0.000E+00  1.18155E+02  2.047E-01  1.482E+00  2.262E-04  1.844E-04 -2.490E-05
   1    4   75     1    75    4.0377E-02  1.5914E-04   4.0218E-02  0.000E+00  0.000E+00  0.000E+00  1.17854E+02  2.044E-01  1.480E+00  2.259E-04  1.872E-04 -2.808E-05
   1    4   76     1    76    4.0218E-02  1.5884E-04   4.0059E-02  0.000E+00  0.000E+00  0.000E+00  1.17554E+02  2.041E-01  1.478E+00  2.256E-04  1.917E-04 -3.286E-05
   1    4   77     1    77    4.0059E-02  1.5853E-04   3.9901E-02  0.000E+00  0.000E+00  0.000E+00  1.17254E+02  2.038E-01  1.475E+00  2.252E-04  1.968E-04 -3.822E-05
   1    4   78     1    78    3.9901E-02  1.5823E-04   3.9742E-02  0.000E+00  0.000E+00  0.000E+00  1.16954E+02  2.035E-01  1.473E+00  2.249E-04  2.021E-04 -4.386E-05
   1    4   79     1    79    3.9742E-02  1.5793E-04   3.9584E-02  0.000E+00  0.000E+00  0.000E+00  1.16653E+02  2.032E-01  1.471E+00  2.246E-04  2.077E-04 -4.976E-05
   1    4   80     1    80    3.9584E-02  1.5762E-04   3.9427E-02  0.000E+00  0.000E+00  0.000E+00  1.16353E+02  2.029E-01  1.469E+00  2.242E-04  2.142E-04 -5.654E-05
   1    4   81     1    81    3.9427E-02  1.5732E-04   3.9269E-02  0.000E+00  0.000E+00  0.000E+00  1.16053E+02  2.026E-01  1.467E+00  2.239E-04  2.206E-04 -6.331E-05
   1    4   82     1    82    3.9269E-02  1.5702E-04   3.9112E-02  0.000E+00  0.000E+00  0.000E+00  1.15752E+02  2.023E-01  1.464E+00  2.236E-04  2.263E-04 -6.931E-05
   1    4   83     1    83    3.9112E-02  1.5671E-04   3.8956E-02  0.000E+00  0.000E+00  0.000E+00  1.15452E+02  2.020E-01  1.462E+00  2.232E-04  2.323E-04 -7.558E-05
   1    4   84     1    84    3.8956E-02  1.5641E-04   3.8799E-02  0.000E+00  0.000E+00  0.000E+00  1.15152E+02  2.017E-01  1.460E+00  2.229E-04  2.403E-04 -8.384E-05
   1    4   85     1    85    3.8799E-02  1.5610E-04   3.8643E-02  0.000E+00  0.000E+00  0.000E+00  1.14851E+02  2.014E-01  1.458E+00  2.226E-04  2.496E-04 -9.347E-05
   1    4   86     1    86    3.8643E-02  1.5580E-04   3.8487E-02  0.000E+00  0.000E+00  0.000E+00  1.14551E+02  2.011E-01  1.456E+00  2.222E-04  2.555E-04 -9.974E-05
   1    4   87     1    87    3.8487E-02  1.5550E-04   3.8332E-02  0.000E+00  0.000E+00  0.000E+00  1.14251E+02  2.008E-01  1.453E+00  2.219E-04  2.631E-04 -1.076E-04
   1    4   88     1    88    3.8332E-02  1.5519E-04   3.8177E-02  0.000E+00  0.000E+00  0.000E+00  1.13950E+02  2.005E-01  1.451E+00  2.215E-04  2.750E-04 -1.198E-04
   1    4   89     1    89    3.8177E-02  1.5489E-04   3.8022E-02  0.000E+00  0.000E+00  0.000E+00  1.13650E+02  2.002E-01  1.449E+00  2.212E-04  2.969E-04 -1.420E-04
   1    4   90     1    90    3.8022E-02  1.5459E-04   3.7867E-02  0.000E+00  0.000E+00  0.000E+00  1.13350E+02  1.999E-01  1.447E+00  2.209E-04  3.131E-04 -1.585E-04
   1    4   91     1    91    3.7867E-02  1.5428E-04   3.7713E-02  0.000E+00  0.000E+00  0.000E+00  1.13050E+02  1.996E-01  1.445E+00  2.205E-04  3.246E-04 -1.703E-04
   1    4   92     1    92    3.7713E-02  1.5398E-04   3.7559E-02  0.000E+00  0.000E+00  0.000E+00  1.12749E+02  1.993E-01  1.442E+00  2.202E-04  3.344E-04 -1.804E-04
   1    4   93     1    93    3.7559E-02  1.5367E-04   3.7405E-02  0.000E+00  0.000E+00  0.000E+00  1.12449E+02  1.990E-01  1.440E+00  2.199E-04  3.459E-04 -1.922E-04
   1    4   94     1    94    3.7405E-02  1.5337E-04   3.7252E-02  0.000E+00  0.000E+00  0.000E+00  1.12149E+02  1.987E-01  1.438E+00  2.195E-04  3.577E-04 -2.043E-04
   1    4   95     1    95    3.7252E-02  1.5307E-04   3.7099E-02  0.000E+00  0.000E+00  0.000E+00  1.11848E+02  1.984E-01  1.436E+00  2.192E-04  3.688E-04 -2.158E-04
   1    4   96     1    96    3.7099E-02  1.5276E-04   3.6946E-02  0.000E+00  0.000E+00  0.000E+00  1.11548E+02  1.980E-01  1.433E+00  2.188E-04  3.774E-04 -2.246E-04
   1    4   97     1    97    3.6946E-02  1.5246E-04   3.6794E-02  0.000E+00  0.000E+00  0.000E+00  1.11248E+02  1.977E-01  1.431E+00  2.185E-04  3.838E-04 -2.314E-04
   1    4   98     1    98    3.6794E-02  1.5216E-04   3.6641E-02  0.000E+00  0.000E+00  0.000E+00  1.10947E+02  1.974E-01  1.429E+00  2.182E-04  3.872E-04 -2.351E-04
   1    4   99     1    99    3.6641E-02  1.5185E-04   3.6490E-02  0.000E+00  0.000E+00  0.000E+00  1.10647E+02  1.971E-01  1.427E+00  2.178E-04  3.886E-04 -2.368E-04
   1    4  100     1   100    3.6490E-02  1.5155E-04   3.6338E-02  0.000E+00  0.000E+00  0.000E+00  1.10347E+02  1.968E-01  1.425E+00  2.175E-04  3.901E-04 -2.386E-04



1
  VOLUMETRIC BUDGET FOR UNSATURATED ZONE BENEATH STREAMS AT END OF TIME STEP  30 STRESS PERIOD  35
  ------------------------------------------------------------------------------------------------

    CUMULATIVE VOLUMES             L**3    RATES FOR THIS TIME STEP         L**3/T
    ------------------                     ------------------------


          STREAM LOSS =     30216108.0000            STREAM LOSS =        1.6662E-02
    CHANGE IN STORAGE =       243325.2344      CHANGE IN STORAGE =       -4.8498E-03
       RECHARGE TO GW =     29971426.0000         RECHARGE TO GW =        2.1512E-02

             TOTAL IN =     30216108.0000               TOTAL IN =        2.1512E-02

            TOTAL OUT =     30214752.0000              TOTAL OUT =        2.1512E-02

             IN - OUT =         1356.0000               IN - OUT =        1.9511E-07

  PERCENT DISCREPANCY =            0.00      PERCENT DISCREPANCY =             0.00



1
              HEAD IN LAYER   1 AT END OF TIME STEP  30 IN STRESS PERIOD   35
  ---------------------------------------------------------------------------

          1      2      3      4      5      6      7      8      9     10
         11     12     13     14     15     16     17     18     19     20
         21     22     23     24     25     26     27     28     29     30
         31     32     33     34     35     36     37     38     39     40
         41     42     43     44     45     46     47     48     49     50
         51     52     53     54     55     56     57     58     59     60
         61     62     63     64     65     66     67     68     69     70
         71     72     73     74     75     76     77     78     79     80
         81     82     83     84     85     86     87     88     89     90
         91     92     93     94     95     96     97     98     99    100
 .........................................................................
   1   115.2  115.2  115.2  115.2  115.2  115.1  115.1  115.1  115.1  115.0
       115.0  114.9  114.9  114.8  114.8  114.7  114.6  114.5  114.5  114.4
       114.3  114.2  114.1  114.0  113.9  113.7  113.6  113.5  113.3  113.2
       113.0  112.9  112.7  112.6  112.4  112.2  112.0  111.8  111.6  111.4
       111.1  110.9  110.7  110.4  110.2  109.9  109.6  109.3  109.0  108.7
       108.4  108.1  107.7  107.4  107.0  106.7  106.3  105.9  105.5  105.0
       104.6  104.2  103.7  103.2  102.7  102.2  101.7  101.2  100.6  100.1
        99.5   98.9   98.3   97.7   97.1   96.4   95.7   95.0   94.3   93.6
        92.9   92.1   91.3   90.5   89.7   88.9   88.0   87.1   86.2   85.3
        84.4   83.4   82.4   81.4   80.4   79.4   78.3   77.2   76.1   75.0
   2   115.2  115.2  115.2  115.2  115.2  115.1  115.1  115.1  115.1  115.0
       115.0  114.9  114.9  114.8  114.8  114.7  114.6  114.5  114.5  114.4
       114.3  114.2  114.1  114.0  113.9  113.7  113.6  113.5  113.3  113.2
       113.0  112.9  112.7  112.6  112.4  112.2  112.0  111.8  111.6  111.4
       111.1  110.9  110.7  110.4  110.2  109.9  109.6  109.3  109.0  108.7
       108.4  108.1  107.7  107.4  107.0  106.7  106.3  105.9  105.5  105.0
       104.6  104.2  103.7  103.2  102.7  102.2  101.7  101.2  100.6  100.1
        99.5   98.9   98.3   97.7   97.1   96.4   95.7   95.0   94.3   93.6
        92.9   92.1   91.3   90.5   89.7   88.9   88.0   87.1   86.2   85.3
        84.4   83.4   82.4   81.4   80.4   79.4   78.3   77.2   76.1   75.0
   3   115.2  115.2  115.2  115.2  115.2  115.1  115.1  115.1  115.1  115.0
       115.0  114.9  114.9  114.8  114.8  114.7  114.6  114.5  114.5  114.4
       114.3  114.2  114.1  114.0  113.9  113.7  113.6  113.5  113.3  113.2
       113.0  112.9  112.7  112.6  112.4  112.2  112.0  111.8  111.6  111.4
       111.1  110.9  110.7  110.4  110.2  109.9  109.6  109.3  109.0  108.7
       108.4  108.1  107.7  107.4  107.0  106.7  106.3  105.9  105.5  105.0
       104.6  104.2  103.7  103.2  102.7  102.2  101.7  101.2  100.6  100.1
        99.5   98.9   98.3   97.7   97.1   96.4   95.7   95.0   94.3   93.6
        92.9   92.1   91.3   90.5   89.7   88.9   88.0   87.1   86.2   85.3
        84.4   83.4   82.4   81.4   80.4   79.4   78.3   77.2   76.1   75.0
   4   115.2  115.2  115.2  115.2  115.2  115.1  115.1  115.1  115.1  115.0
       115.0  114.9  114.9  114.8  114.8  114.7  114.6  114.5  114.5  114.4
       114.3  114.2  114.1  114.0  113.9  113.7  113.6  113.5  113.3  113.2
       113.0  112.9  112.7  112.6  112.4  112.2  112.0  111.8  111.6  111.4
       111.1  110.9  110.7  110.4  110.2  109.9  109.6  109.3  109.0  108.7
       108.4  108.1  107.7  107.4  107.0  106.7  106.3  105.9  105.5  105.0
       104.6  104.2  103.7  103.2  102.7  102.2  101.7  101.2  100.6  100.1
        99.5   98.9   98.3   97.7   97.1   96.4   95.7   95.0   94.3   93.6
        92.9   92.1   91.3   90.5   89.7   88.9   88.0   87.1   86.2   85.3
        84.4   83.4   82.4   81.4   80.4   79.4   78.3   77.2   76.1   75.0
   5   115.2  115.2  115.2  115.2  115.2  115.1  115.1  115.1  115.1  115.0
       115.0  114.9  114.9  114.8  114.8  114.7  114.6  114.5  114.5  114.4
       114.3  114.2  114.1  114.0  113.9  113.7  113.6  113.5  113.3  113.2
       113.0  112.9  112.7  112.6  112.4  112.2  112.0  111.8  111.6  111.4
       111.1  110.9  110.7  110.4  110.2  109.9  109.6  109.3  109.0  108.7
       108.4  108.1  107.7  107.4  107.0  106.7  106.3  105.9  105.5  105.0
       104.6  104.2  103.7  103.2  102.7  102.2  101.7  101.2  100.6  100.1
        99.5   98.9   98.3   97.7   97.1   96.4   95.7   95.0   94.3   93.6
        92.9   92.1   91.3   90.5   89.7   88.9   88.0   87.1   86.2   85.3
        84.4   83.4   82.4   81.4   80.4   79.4   78.3   77.2   76.1   75.0
   6   115.2  115.2  115.2  115.2  115.2  115.1  115.1  115.1  115.1  115.0
       115.0  114.9  114.9  114.8  114.8  114.7  114.6  114.5  114.5  114.4
       114.3  114.2  114.1  114.0  113.9  113.7  113.6  113.5  113.3  113.2
       113.0  112.9  112.7  112.6  112.4  112.2  112.0  111.8  111.6  111.4
       111.1  110.9  110.7  110.4  110.2  109.9  109.6  109.3  109.0  108.7
       108.4  108.1  107.7  107.4  107.0  106.7  106.3  105.9  105.5  105.0
       104.6  104.2  103.7  103.2  102.7  102.2  101.7  101.2  100.6  100.1
        99.5   98.9   98.3   97.7   97.1   96.4   95.7   95.0   94.3   93.6
        92.9   92.1   91.3   90.5   89.7   88.9   88.0   87.1   86.2   85.3
        84.4   83.4   82.4   81.4   80.4   79.4   78.3   77.2   76.1   75.0
   7   115.2  115.2  115.2  115.2  115.2  115.1  115.1  115.1  115.1  115.0
       115.0  114.9  114.9  114.8  114.8  114.7  114.6  114.5  114.5  114.4
       114.3  114.2  114.1  114.0  113.9  113.7  113.6  113.5  113.3  113.2
       113.0  112.9  112.7  112.6  112.4  112.2  112.0  111.8  111.6  111.4
       111.1  110.9  110.7  110.4  110.2  109.9  109.6  109.3  109.0  108.7
       108.4  108.1  107.7  107.4  107.0  106.7  106.3  105.9  105.5  105.0
       104.6  104.2  103.7  103.2  102.7  102.2  101.7  101.2  100.6  100.1
        99.5   98.9   98.3   97.7   97.1   96.4   95.7   95.0   94.3   93.6
        92.9   92.1   91.3   90.5   89.7   88.9   88.0   87.1   86.2   85.3
        84.4   83.4   82.4   81.4   80.4   79.4   78.3   77.2   76.1   75.0
1
  VOLUMETRIC BUDGET FOR ENTIRE MODEL AT END OF TIME STEP 30 IN STRESS PERIOD  35
  ------------------------------------------------------------------------------

     CUMULATIVE VOLUMES      L**3       RATES FOR THIS TIME STEP      L**3/T
     ------------------                 ------------------------

           IN:                                      IN:
           ---                                      ---
             STORAGE =    14903318.0000               STORAGE =           0.1823
       CONSTANT HEAD =           0.0000         CONSTANT HEAD =           0.0000
     HEAD DEP BOUNDS =           0.0000       HEAD DEP BOUNDS =           0.0000
      STREAM LEAKAGE =    29971124.0000        STREAM LEAKAGE =       2.1512E-02

            TOTAL IN =    44874440.0000              TOTAL IN =           0.2038

          OUT:                                     OUT:
          ----                                     ----
             STORAGE =    15950722.0000               STORAGE =           0.0000
       CONSTANT HEAD =           0.0000         CONSTANT HEAD =           0.0000
     HEAD DEP BOUNDS =    28922766.0000       HEAD DEP BOUNDS =           0.2037
      STREAM LEAKAGE =           0.0000        STREAM LEAKAGE =           0.0000

           TOTAL OUT =    44873488.0000             TOTAL OUT =           0.2037

            IN - OUT =         952.0000              IN - OUT =       7.5534E-05

 PERCENT DISCREPANCY =           0.00     PERCENT DISCREPANCY =           0.04






          TIME SUMMARY AT END OF TIME STEP  30 IN STRESS PERIOD   35
                    SECONDS     MINUTES      HOURS       DAYS        YEARS
                    -----------------------------------------------------------
   TIME STEP LENGTH 2.49961E+05  4166.0      69.434      2.8931     7.92080E-03
 STRESS PERIOD TIME 2.59200E+06  43200.      720.00      30.000     8.21355E-02
         TOTAL TIME 9.07200E+07 1.51200E+06  25200.      1050.0      2.8747    
1
1
                            STRESS PERIOD NO.   36, LENGTH =   2592000.    
                            -----------------------------------------------

                              NUMBER OF TIME STEPS =    30

                               MULTIPLIER FOR DELT =     1.100

                            INITIAL TIME STEP SIZE =   15757.40    

 REUSING NON-PARAMETER GHB CELLS FROM LAST STRESS PERIOD

      7 GHB CELLS



 CLASSIFICATION & COUNT OF STREAM SEGMENTS BASED ON SOURCE OF INFLOW:

                HEADWATER     DIVERSION     RECEIVES TRIBUTARY FLOW
                ---------     ---------     -----------------------
                     1              0               0



                    INPUT DATA FOR EACH STREAM SEGMENT
 ---------------------------------------------------------------------------------------------

 SEGMENT    SEG.     INFLOW   OVERLAND   STREAM    STREAM   ICALC  OUTFLOW  DIVERSION PRIORITY
    NO.    LENGTH     RATE     RUNOFF      ET       PPT.    METH.  TO SEG.  FROM SEG.    NO.

      1  2.000E+04 1.600E-02 0.000E+00 0.000E+00 0.000E+00    2        0        0        0


         STREAMBED PROPERTIES AND STREAM DIMENSIONS

 SEGMENT     BED HYD. COND.      BED THICKNESS     ELEV.-TOP OF BED     WIDTH OF STREAM     DEPTH OF STREAM    STREAM ROUGHNESS
    No.     UPPER     LOWER     UPPER     LOWER     UPPER     LOWER     UPPER     LOWER     UPPER     LOWER   CHANNEL      BANK

     1  3.500E-07 3.500E-07                                                                                 3.000E-02 4.000E-02

  EIGHT POINT CROSS-SECTION DATA FOR SEGMENTS WITH ICALC = 2
    X VALUES X VALUES START FROM LEFT SIDE LOOKING DOWNSTREAM

     SEGMENT NO.        X1        X2        X3        X4        X5        X6        X7        X8
            1      0.000E+00 2.000E+00 4.000E+00 6.000E+00 8.000E+00 1.000E+01 1.200E+01 1.400E+01

    Z VALUES ARE RELATIVE TO STREAMBED ELEVATION

     SEGMENT NO.          Z1        Z2        Z3        Z4        Z5        Z6        Z7        Z8
            1      6.000E+00 4.500E+00 3.500E+00 0.000E+00 3.000E-01 3.500E+00 4.500E+00 6.000E+00



 
 SOLVING FOR HEAD 

 NO OUTPUT CONTROL FOR STRESS PERIOD   36   TIME STEP   1
 
 SOLVING FOR HEAD 

 NO OUTPUT CONTROL FOR STRESS PERIOD   36   TIME STEP   2
 
 SOLVING FOR HEAD 

 NO OUTPUT CONTROL FOR STRESS PERIOD   36   TIME STEP   3
 
 SOLVING FOR HEAD 

 NO OUTPUT CONTROL FOR STRESS PERIOD   36   TIME STEP   4
 
 SOLVING FOR HEAD 

 NO OUTPUT CONTROL FOR STRESS PERIOD   36   TIME STEP   5
 
 SOLVING FOR HEAD 

 NO OUTPUT CONTROL FOR STRESS PERIOD   36   TIME STEP   6
 
 SOLVING FOR HEAD 

 NO OUTPUT CONTROL FOR STRESS PERIOD   36   TIME STEP   7
 
 SOLVING FOR HEAD 

 NO OUTPUT CONTROL FOR STRESS PERIOD   36   TIME STEP   8
 
 SOLVING FOR HEAD 

 NO OUTPUT CONTROL FOR STRESS PERIOD   36   TIME STEP   9
 
 SOLVING FOR HEAD 

 NO OUTPUT CONTROL FOR STRESS PERIOD   36   TIME STEP  10
 
 SOLVING FOR HEAD 

 NO OUTPUT CONTROL FOR STRESS PERIOD   36   TIME STEP  11
 
 SOLVING FOR HEAD 

 NO OUTPUT CONTROL FOR STRESS PERIOD   36   TIME STEP  12
 
 SOLVING FOR HEAD 

 NO OUTPUT CONTROL FOR STRESS PERIOD   36   TIME STEP  13
 
 SOLVING FOR HEAD 

 NO OUTPUT CONTROL FOR STRESS PERIOD   36   TIME STEP  14
 
 SOLVING FOR HEAD 

 NO OUTPUT CONTROL FOR STRESS PERIOD   36   TIME STEP  15
 
 SOLVING FOR HEAD 

 NO OUTPUT CONTROL FOR STRESS PERIOD   36   TIME STEP  16
 
 SOLVING FOR HEAD 

 NO OUTPUT CONTROL FOR STRESS PERIOD   36   TIME STEP  17
 
 SOLVING FOR HEAD 

 NO OUTPUT CONTROL FOR STRESS PERIOD   36   TIME STEP  18
 
 SOLVING FOR HEAD 

 NO OUTPUT CONTROL FOR STRESS PERIOD   36   TIME STEP  19
 
 SOLVING FOR HEAD 

 NO OUTPUT CONTROL FOR STRESS PERIOD   36   TIME STEP  20
 
 SOLVING FOR HEAD 

 NO OUTPUT CONTROL FOR STRESS PERIOD   36   TIME STEP  21
 
 SOLVING FOR HEAD 

 NO OUTPUT CONTROL FOR STRESS PERIOD   36   TIME STEP  22
 
 SOLVING FOR HEAD 

 NO OUTPUT CONTROL FOR STRESS PERIOD   36   TIME STEP  23
 
 SOLVING FOR HEAD 

 NO OUTPUT CONTROL FOR STRESS PERIOD   36   TIME STEP  24
 
 SOLVING FOR HEAD 

 NO OUTPUT CONTROL FOR STRESS PERIOD   36   TIME STEP  25
 
 SOLVING FOR HEAD 

 NO OUTPUT CONTROL FOR STRESS PERIOD   36   TIME STEP  26
 
 SOLVING FOR HEAD 

 NO OUTPUT CONTROL FOR STRESS PERIOD   36   TIME STEP  27
 
 SOLVING FOR HEAD 

 NO OUTPUT CONTROL FOR STRESS PERIOD   36   TIME STEP  28
 
 SOLVING FOR HEAD 

 NO OUTPUT CONTROL FOR STRESS PERIOD   36   TIME STEP  29
 
 SOLVING FOR HEAD 

 NO OUTPUT CONTROL FOR STRESS PERIOD   36   TIME STEP  30
1
  VOLUMETRIC BUDGET FOR UNSATURATED ZONE BENEATH STREAMS AT END OF TIME STEP  30 STRESS PERIOD  36
  ------------------------------------------------------------------------------------------------

    CUMULATIVE VOLUMES             L**3    RATES FOR THIS TIME STEP         L**3/T
    ------------------                     ------------------------


          STREAM LOSS =     30238902.0000            STREAM LOSS =        8.7630E-03
    CHANGE IN STORAGE =       219091.2656      CHANGE IN STORAGE =       -7.8215E-03
       RECHARGE TO GW =     30018352.0000         RECHARGE TO GW =        1.6584E-02

             TOTAL IN =     30238902.0000               TOTAL IN =        1.6585E-02

            TOTAL OUT =     30237444.0000              TOTAL OUT =        1.6584E-02

             IN - OUT =         1458.0000               IN - OUT =        8.4657E-07

  PERCENT DISCREPANCY =            0.00      PERCENT DISCREPANCY =             0.00



1
  VOLUMETRIC BUDGET FOR ENTIRE MODEL AT END OF TIME STEP 30 IN STRESS PERIOD  36
  ------------------------------------------------------------------------------

     CUMULATIVE VOLUMES      L**3       RATES FOR THIS TIME STEP      L**3/T
     ------------------                 ------------------------

           IN:                                      IN:
           ---                                      ---
             STORAGE =    15377566.0000               STORAGE =           0.1821
       CONSTANT HEAD =           0.0000         CONSTANT HEAD =           0.0000
     HEAD DEP BOUNDS =           0.0000       HEAD DEP BOUNDS =           0.0000
      STREAM LEAKAGE =    30018072.0000        STREAM LEAKAGE =       1.6584E-02

            TOTAL IN =    45395640.0000              TOTAL IN =           0.1987

          OUT:                                     OUT:
          ----                                     ----
             STORAGE =    15950722.0000               STORAGE =           0.0000
       CONSTANT HEAD =           0.0000         CONSTANT HEAD =           0.0000
     HEAD DEP BOUNDS =    29443918.0000       HEAD DEP BOUNDS =           0.1986
      STREAM LEAKAGE =           0.0000        STREAM LEAKAGE =           0.0000

           TOTAL OUT =    45394640.0000             TOTAL OUT =           0.1986

            IN - OUT =        1000.0000              IN - OUT =       7.3537E-05

 PERCENT DISCREPANCY =           0.00     PERCENT DISCREPANCY =           0.04






          TIME SUMMARY AT END OF TIME STEP  30 IN STRESS PERIOD   36
                    SECONDS     MINUTES      HOURS       DAYS        YEARS
                    -----------------------------------------------------------
   TIME STEP LENGTH 2.49961E+05  4166.0      69.434      2.8931     7.92080E-03
 STRESS PERIOD TIME 2.59200E+06  43200.      720.00      30.000     8.21355E-02
         TOTAL TIME 9.33120E+07 1.55520E+06  25920.      1080.0      2.9569    
1
1
                            STRESS PERIOD NO.   37, LENGTH =   2592000.    
                            -----------------------------------------------

                              NUMBER OF TIME STEPS =    30

                               MULTIPLIER FOR DELT =     1.100

                            INITIAL TIME STEP SIZE =   15757.40    

 REUSING NON-PARAMETER GHB CELLS FROM LAST STRESS PERIOD

      7 GHB CELLS



 CLASSIFICATION & COUNT OF STREAM SEGMENTS BASED ON SOURCE OF INFLOW:

                HEADWATER     DIVERSION     RECEIVES TRIBUTARY FLOW
                ---------     ---------     -----------------------
                     1              0               0



                    INPUT DATA FOR EACH STREAM SEGMENT
 ---------------------------------------------------------------------------------------------

 SEGMENT    SEG.     INFLOW   OVERLAND   STREAM    STREAM   ICALC  OUTFLOW  DIVERSION PRIORITY
    NO.    LENGTH     RATE     RUNOFF      ET       PPT.    METH.  TO SEG.  FROM SEG.    NO.

      1  2.000E+04 6.200E-02 0.000E+00 0.000E+00 0.000E+00    2        0        0        0


         STREAMBED PROPERTIES AND STREAM DIMENSIONS

 SEGMENT     BED HYD. COND.      BED THICKNESS     ELEV.-TOP OF BED     WIDTH OF STREAM     DEPTH OF STREAM    STREAM ROUGHNESS
    No.     UPPER     LOWER     UPPER     LOWER     UPPER     LOWER     UPPER     LOWER     UPPER     LOWER   CHANNEL      BANK

     1  3.500E-07 3.500E-07                                                                                 3.000E-02 4.000E-02

  EIGHT POINT CROSS-SECTION DATA FOR SEGMENTS WITH ICALC = 2
    X VALUES X VALUES START FROM LEFT SIDE LOOKING DOWNSTREAM

     SEGMENT NO.        X1        X2        X3        X4        X5        X6        X7        X8
            1      0.000E+00 2.000E+00 4.000E+00 6.000E+00 8.000E+00 1.000E+01 1.200E+01 1.400E+01

    Z VALUES ARE RELATIVE TO STREAMBED ELEVATION

     SEGMENT NO.          Z1        Z2        Z3        Z4        Z5        Z6        Z7        Z8
            1      6.000E+00 4.500E+00 3.500E+00 0.000E+00 3.000E-01 3.500E+00 4.500E+00 6.000E+00



 
 SOLVING FOR HEAD 

 NO OUTPUT CONTROL FOR STRESS PERIOD   37   TIME STEP   1
 
 SOLVING FOR HEAD 

 NO OUTPUT CONTROL FOR STRESS PERIOD   37   TIME STEP   2
 
 SOLVING FOR HEAD 

 NO OUTPUT CONTROL FOR STRESS PERIOD   37   TIME STEP   3
 
 SOLVING FOR HEAD 

 NO OUTPUT CONTROL FOR STRESS PERIOD   37   TIME STEP   4
 
 SOLVING FOR HEAD 

 NO OUTPUT CONTROL FOR STRESS PERIOD   37   TIME STEP   5
 
 SOLVING FOR HEAD 

 NO OUTPUT CONTROL FOR STRESS PERIOD   37   TIME STEP   6
 
 SOLVING FOR HEAD 

 NO OUTPUT CONTROL FOR STRESS PERIOD   37   TIME STEP   7
 
 SOLVING FOR HEAD 

 NO OUTPUT CONTROL FOR STRESS PERIOD   37   TIME STEP   8
 
 SOLVING FOR HEAD 

 NO OUTPUT CONTROL FOR STRESS PERIOD   37   TIME STEP   9
 
 SOLVING FOR HEAD 

 NO OUTPUT CONTROL FOR STRESS PERIOD   37   TIME STEP  10
 
 SOLVING FOR HEAD 

 NO OUTPUT CONTROL FOR STRESS PERIOD   37   TIME STEP  11
 
 SOLVING FOR HEAD 

 NO OUTPUT CONTROL FOR STRESS PERIOD   37   TIME STEP  12
 
 SOLVING FOR HEAD 

 NO OUTPUT CONTROL FOR STRESS PERIOD   37   TIME STEP  13
 
 SOLVING FOR HEAD 

 NO OUTPUT CONTROL FOR STRESS PERIOD   37   TIME STEP  14
 
 SOLVING FOR HEAD 

 NO OUTPUT CONTROL FOR STRESS PERIOD   37   TIME STEP  15
 
 SOLVING FOR HEAD 

 NO OUTPUT CONTROL FOR STRESS PERIOD   37   TIME STEP  16
 
 SOLVING FOR HEAD 

 NO OUTPUT CONTROL FOR STRESS PERIOD   37   TIME STEP  17
 
 SOLVING FOR HEAD 

 NO OUTPUT CONTROL FOR STRESS PERIOD   37   TIME STEP  18
 
 SOLVING FOR HEAD 

 NO OUTPUT CONTROL FOR STRESS PERIOD   37   TIME STEP  19
 
 SOLVING FOR HEAD 

 NO OUTPUT CONTROL FOR STRESS PERIOD   37   TIME STEP  20
 
 SOLVING FOR HEAD 

 NO OUTPUT CONTROL FOR STRESS PERIOD   37   TIME STEP  21
 
 SOLVING FOR HEAD 

 NO OUTPUT CONTROL FOR STRESS PERIOD   37   TIME STEP  22
 
 SOLVING FOR HEAD 

 NO OUTPUT CONTROL FOR STRESS PERIOD   37   TIME STEP  23
 
 SOLVING FOR HEAD 

 NO OUTPUT CONTROL FOR STRESS PERIOD   37   TIME STEP  24
 
 SOLVING FOR HEAD 

 NO OUTPUT CONTROL FOR STRESS PERIOD   37   TIME STEP  25
 
 SOLVING FOR HEAD 

 NO OUTPUT CONTROL FOR STRESS PERIOD   37   TIME STEP  26
 
 SOLVING FOR HEAD 

 NO OUTPUT CONTROL FOR STRESS PERIOD   37   TIME STEP  27
 
 SOLVING FOR HEAD 

 NO OUTPUT CONTROL FOR STRESS PERIOD   37   TIME STEP  28
 
 SOLVING FOR HEAD 

 NO OUTPUT CONTROL FOR STRESS PERIOD   37   TIME STEP  29
 
 SOLVING FOR HEAD 

 NO OUTPUT CONTROL FOR STRESS PERIOD   37   TIME STEP  30
1
  VOLUMETRIC BUDGET FOR UNSATURATED ZONE BENEATH STREAMS AT END OF TIME STEP  30 STRESS PERIOD  37
  ------------------------------------------------------------------------------------------------

    CUMULATIVE VOLUMES             L**3    RATES FOR THIS TIME STEP         L**3/T
    ------------------                     ------------------------


          STREAM LOSS =     30285854.0000            STREAM LOSS =        1.8117E-02
    CHANGE IN STORAGE =       234941.0938      CHANGE IN STORAGE =        8.0054E-03
       RECHARGE TO GW =     30049450.0000         RECHARGE TO GW =        1.0112E-02

             TOTAL IN =     30285854.0000               TOTAL IN =        1.8117E-02

            TOTAL OUT =     30284392.0000              TOTAL OUT =        1.8117E-02

             IN - OUT =         1462.0000               IN - OUT =       -7.4506E-09

  PERCENT DISCREPANCY =            0.00      PERCENT DISCREPANCY =             0.00



1
  VOLUMETRIC BUDGET FOR ENTIRE MODEL AT END OF TIME STEP 30 IN STRESS PERIOD  37
  ------------------------------------------------------------------------------

     CUMULATIVE VOLUMES      L**3       RATES FOR THIS TIME STEP      L**3/T
     ------------------                 ------------------------

           IN:                                      IN:
           ---                                      ---
             STORAGE =    15855603.0000               STORAGE =           0.1843
       CONSTANT HEAD =           0.0000         CONSTANT HEAD =           0.0000
     HEAD DEP BOUNDS =           0.0000       HEAD DEP BOUNDS =           0.0000
      STREAM LEAKAGE =    30049182.0000        STREAM LEAKAGE =       1.0112E-02

            TOTAL IN =    45904784.0000              TOTAL IN =           0.1944

          OUT:                                     OUT:
          ----                                     ----
             STORAGE =    15950722.0000               STORAGE =           0.0000
       CONSTANT HEAD =           0.0000         CONSTANT HEAD =           0.0000
     HEAD DEP BOUNDS =    29953044.0000       HEAD DEP BOUNDS =           0.1944
      STREAM LEAKAGE =           0.0000        STREAM LEAKAGE =           0.0000

           TOTAL OUT =    45903768.0000             TOTAL OUT =           0.1944

            IN - OUT =        1016.0000              IN - OUT =       4.1112E-05

 PERCENT DISCREPANCY =           0.00     PERCENT DISCREPANCY =           0.02






          TIME SUMMARY AT END OF TIME STEP  30 IN STRESS PERIOD   37
                    SECONDS     MINUTES      HOURS       DAYS        YEARS
                    -----------------------------------------------------------
   TIME STEP LENGTH 2.49961E+05  4166.0      69.434      2.8931     7.92080E-03
 STRESS PERIOD TIME 2.59200E+06  43200.      720.00      30.000     8.21355E-02
         TOTAL TIME 9.59040E+07 1.59840E+06  26640.      1110.0      3.0390    
1
1
                            STRESS PERIOD NO.   38, LENGTH =   2592000.    
                            -----------------------------------------------

                              NUMBER OF TIME STEPS =    30

                               MULTIPLIER FOR DELT =     1.100

                            INITIAL TIME STEP SIZE =   15757.40    

 REUSING NON-PARAMETER GHB CELLS FROM LAST STRESS PERIOD

      7 GHB CELLS



 CLASSIFICATION & COUNT OF STREAM SEGMENTS BASED ON SOURCE OF INFLOW:

                HEADWATER     DIVERSION     RECEIVES TRIBUTARY FLOW
                ---------     ---------     -----------------------
                     1              0               0



                    INPUT DATA FOR EACH STREAM SEGMENT
 ---------------------------------------------------------------------------------------------

 SEGMENT    SEG.     INFLOW   OVERLAND   STREAM    STREAM   ICALC  OUTFLOW  DIVERSION PRIORITY
    NO.    LENGTH     RATE     RUNOFF      ET       PPT.    METH.  TO SEG.  FROM SEG.    NO.

      1  2.000E+04 3.730E+00 0.000E+00 0.000E+00 0.000E+00    2        0        0        0


         STREAMBED PROPERTIES AND STREAM DIMENSIONS

 SEGMENT     BED HYD. COND.      BED THICKNESS     ELEV.-TOP OF BED     WIDTH OF STREAM     DEPTH OF STREAM    STREAM ROUGHNESS
    No.     UPPER     LOWER     UPPER     LOWER     UPPER     LOWER     UPPER     LOWER     UPPER     LOWER   CHANNEL      BANK

     1  3.500E-07 3.500E-07                                                                                 3.000E-02 4.000E-02

  EIGHT POINT CROSS-SECTION DATA FOR SEGMENTS WITH ICALC = 2
    X VALUES X VALUES START FROM LEFT SIDE LOOKING DOWNSTREAM

     SEGMENT NO.        X1        X2        X3        X4        X5        X6        X7        X8
            1      0.000E+00 2.000E+00 4.000E+00 6.000E+00 8.000E+00 1.000E+01 1.200E+01 1.400E+01

    Z VALUES ARE RELATIVE TO STREAMBED ELEVATION

     SEGMENT NO.          Z1        Z2        Z3        Z4        Z5        Z6        Z7        Z8
            1      6.000E+00 4.500E+00 3.500E+00 0.000E+00 3.000E-01 3.500E+00 4.500E+00 6.000E+00



 
 SOLVING FOR HEAD 

 NO OUTPUT CONTROL FOR STRESS PERIOD   38   TIME STEP   1
 
 SOLVING FOR HEAD 

 NO OUTPUT CONTROL FOR STRESS PERIOD   38   TIME STEP   2
 
 SOLVING FOR HEAD 

 NO OUTPUT CONTROL FOR STRESS PERIOD   38   TIME STEP   3
 
 SOLVING FOR HEAD 

 NO OUTPUT CONTROL FOR STRESS PERIOD   38   TIME STEP   4
 
 SOLVING FOR HEAD 

 NO OUTPUT CONTROL FOR STRESS PERIOD   38   TIME STEP   5
 
 SOLVING FOR HEAD 

 NO OUTPUT CONTROL FOR STRESS PERIOD   38   TIME STEP   6
 
 SOLVING FOR HEAD 

 NO OUTPUT CONTROL FOR STRESS PERIOD   38   TIME STEP   7
 
 SOLVING FOR HEAD 

 NO OUTPUT CONTROL FOR STRESS PERIOD   38   TIME STEP   8
 
 SOLVING FOR HEAD 

 NO OUTPUT CONTROL FOR STRESS PERIOD   38   TIME STEP   9
 
 SOLVING FOR HEAD 

 NO OUTPUT CONTROL FOR STRESS PERIOD   38   TIME STEP  10
 
 SOLVING FOR HEAD 

 NO OUTPUT CONTROL FOR STRESS PERIOD   38   TIME STEP  11
 
 SOLVING FOR HEAD 

 NO OUTPUT CONTROL FOR STRESS PERIOD   38   TIME STEP  12
 
 SOLVING FOR HEAD 

 NO OUTPUT CONTROL FOR STRESS PERIOD   38   TIME STEP  13
 
 SOLVING FOR HEAD 

 NO OUTPUT CONTROL FOR STRESS PERIOD   38   TIME STEP  14
 
 SOLVING FOR HEAD 

 NO OUTPUT CONTROL FOR STRESS PERIOD   38   TIME STEP  15
 
 SOLVING FOR HEAD 

 NO OUTPUT CONTROL FOR STRESS PERIOD   38   TIME STEP  16
 
 SOLVING FOR HEAD 

 NO OUTPUT CONTROL FOR STRESS PERIOD   38   TIME STEP  17
 
 SOLVING FOR HEAD 

 NO OUTPUT CONTROL FOR STRESS PERIOD   38   TIME STEP  18
 
 SOLVING FOR HEAD 

 NO OUTPUT CONTROL FOR STRESS PERIOD   38   TIME STEP  19
 
 SOLVING FOR HEAD 

 NO OUTPUT CONTROL FOR STRESS PERIOD   38   TIME STEP  20
 
 SOLVING FOR HEAD 

 NO OUTPUT CONTROL FOR STRESS PERIOD   38   TIME STEP  21
 
 SOLVING FOR HEAD 

 NO OUTPUT CONTROL FOR STRESS PERIOD   38   TIME STEP  22
 
 SOLVING FOR HEAD 

 NO OUTPUT CONTROL FOR STRESS PERIOD   38   TIME STEP  23
 
 SOLVING FOR HEAD 

 NO OUTPUT CONTROL FOR STRESS PERIOD   38   TIME STEP  24
 
 SOLVING FOR HEAD 

 NO OUTPUT CONTROL FOR STRESS PERIOD   38   TIME STEP  25
 
 SOLVING FOR HEAD 

 NO OUTPUT CONTROL FOR STRESS PERIOD   38   TIME STEP  26
 
 SOLVING FOR HEAD 

 NO OUTPUT CONTROL FOR STRESS PERIOD   38   TIME STEP  27
 
 SOLVING FOR HEAD 

 NO OUTPUT CONTROL FOR STRESS PERIOD   38   TIME STEP  28
 
 SOLVING FOR HEAD 

 NO OUTPUT CONTROL FOR STRESS PERIOD   38   TIME STEP  29
 
 SOLVING FOR HEAD 

 NO OUTPUT CONTROL FOR STRESS PERIOD   38   TIME STEP  30
1
  VOLUMETRIC BUDGET FOR UNSATURATED ZONE BENEATH STREAMS AT END OF TIME STEP  30 STRESS PERIOD  38
  ------------------------------------------------------------------------------------------------

    CUMULATIVE VOLUMES             L**3    RATES FOR THIS TIME STEP         L**3/T
    ------------------                     ------------------------


          STREAM LOSS =     30638164.0000            STREAM LOSS =            0.1359
    CHANGE IN STORAGE =       369282.7188      CHANGE IN STORAGE =       -1.0379E-03
       RECHARGE TO GW =     30267352.0000         RECHARGE TO GW =            0.1369

             TOTAL IN =     30638164.0000               TOTAL IN =            0.1369

            TOTAL OUT =     30636634.0000              TOTAL OUT =            0.1369

             IN - OUT =         1530.0000               IN - OUT =       -4.2142E-08

  PERCENT DISCREPANCY =            0.00      PERCENT DISCREPANCY =             0.00



1
  VOLUMETRIC BUDGET FOR ENTIRE MODEL AT END OF TIME STEP 30 IN STRESS PERIOD  38
  ------------------------------------------------------------------------------

     CUMULATIVE VOLUMES      L**3       RATES FOR THIS TIME STEP      L**3/T
     ------------------                 ------------------------

           IN:                                      IN:
           ---                                      ---
             STORAGE =    16141959.0000               STORAGE =       6.0446E-02
       CONSTANT HEAD =           0.0000         CONSTANT HEAD =           0.0000
     HEAD DEP BOUNDS =           0.0000       HEAD DEP BOUNDS =           0.0000
      STREAM LEAKAGE =    30267030.0000        STREAM LEAKAGE =           0.1369

            TOTAL IN =    46408988.0000              TOTAL IN =           0.1974

          OUT:                                     OUT:
          ----                                     ----
             STORAGE =    15954149.0000               STORAGE =       2.7996E-03
       CONSTANT HEAD =           0.0000         CONSTANT HEAD =           0.0000
     HEAD DEP BOUNDS =    30453854.0000       HEAD DEP BOUNDS =           0.1945
      STREAM LEAKAGE =           0.0000        STREAM LEAKAGE =           0.0000

           TOTAL OUT =    46408004.0000             TOTAL OUT =           0.1973

            IN - OUT =         984.0000              IN - OUT =       4.0874E-05

 PERCENT DISCREPANCY =           0.00     PERCENT DISCREPANCY =           0.02






          TIME SUMMARY AT END OF TIME STEP  30 IN STRESS PERIOD   38
                    SECONDS     MINUTES      HOURS       DAYS        YEARS
                    -----------------------------------------------------------
   TIME STEP LENGTH 2.49961E+05  4166.0      69.434      2.8931     7.92080E-03
 STRESS PERIOD TIME 2.59200E+06  43200.      720.00      30.000     8.21355E-02
         TOTAL TIME 9.84960E+07 1.64160E+06  27360.      1140.0      3.1212    
1
1
                            STRESS PERIOD NO.   39, LENGTH =   2592000.    
                            -----------------------------------------------

                              NUMBER OF TIME STEPS =    30

                               MULTIPLIER FOR DELT =     1.100

                            INITIAL TIME STEP SIZE =   15757.40    

 REUSING NON-PARAMETER GHB CELLS FROM LAST STRESS PERIOD

      7 GHB CELLS



 CLASSIFICATION & COUNT OF STREAM SEGMENTS BASED ON SOURCE OF INFLOW:

                HEADWATER     DIVERSION     RECEIVES TRIBUTARY FLOW
                ---------     ---------     -----------------------
                     1              0               0



                    INPUT DATA FOR EACH STREAM SEGMENT
 ---------------------------------------------------------------------------------------------

 SEGMENT    SEG.     INFLOW   OVERLAND   STREAM    STREAM   ICALC  OUTFLOW  DIVERSION PRIORITY
    NO.    LENGTH     RATE     RUNOFF      ET       PPT.    METH.  TO SEG.  FROM SEG.    NO.

      1  2.000E+04 3.000E+00 0.000E+00 0.000E+00 0.000E+00    2        0        0        0


         STREAMBED PROPERTIES AND STREAM DIMENSIONS

 SEGMENT     BED HYD. COND.      BED THICKNESS     ELEV.-TOP OF BED     WIDTH OF STREAM     DEPTH OF STREAM    STREAM ROUGHNESS
    No.     UPPER     LOWER     UPPER     LOWER     UPPER     LOWER     UPPER     LOWER     UPPER     LOWER   CHANNEL      BANK

     1  3.500E-07 3.500E-07                                                                                 3.000E-02 4.000E-02

  EIGHT POINT CROSS-SECTION DATA FOR SEGMENTS WITH ICALC = 2
    X VALUES X VALUES START FROM LEFT SIDE LOOKING DOWNSTREAM

     SEGMENT NO.        X1        X2        X3        X4        X5        X6        X7        X8
            1      0.000E+00 2.000E+00 4.000E+00 6.000E+00 8.000E+00 1.000E+01 1.200E+01 1.400E+01

    Z VALUES ARE RELATIVE TO STREAMBED ELEVATION

     SEGMENT NO.          Z1        Z2        Z3        Z4        Z5        Z6        Z7        Z8
            1      6.000E+00 4.500E+00 3.500E+00 0.000E+00 3.000E-01 3.500E+00 4.500E+00 6.000E+00



 
 SOLVING FOR HEAD 

 NO OUTPUT CONTROL FOR STRESS PERIOD   39   TIME STEP   1
 
 SOLVING FOR HEAD 

 NO OUTPUT CONTROL FOR STRESS PERIOD   39   TIME STEP   2
 
 SOLVING FOR HEAD 

 NO OUTPUT CONTROL FOR STRESS PERIOD   39   TIME STEP   3
 
 SOLVING FOR HEAD 

 NO OUTPUT CONTROL FOR STRESS PERIOD   39   TIME STEP   4
 
 SOLVING FOR HEAD 

 NO OUTPUT CONTROL FOR STRESS PERIOD   39   TIME STEP   5
 
 SOLVING FOR HEAD 

 NO OUTPUT CONTROL FOR STRESS PERIOD   39   TIME STEP   6
 
 SOLVING FOR HEAD 

 NO OUTPUT CONTROL FOR STRESS PERIOD   39   TIME STEP   7
 
 SOLVING FOR HEAD 

 NO OUTPUT CONTROL FOR STRESS PERIOD   39   TIME STEP   8
 
 SOLVING FOR HEAD 

 NO OUTPUT CONTROL FOR STRESS PERIOD   39   TIME STEP   9
 
 SOLVING FOR HEAD 

 NO OUTPUT CONTROL FOR STRESS PERIOD   39   TIME STEP  10
 
 SOLVING FOR HEAD 

 NO OUTPUT CONTROL FOR STRESS PERIOD   39   TIME STEP  11
 
 SOLVING FOR HEAD 

 NO OUTPUT CONTROL FOR STRESS PERIOD   39   TIME STEP  12
 
 SOLVING FOR HEAD 

 NO OUTPUT CONTROL FOR STRESS PERIOD   39   TIME STEP  13
 
 SOLVING FOR HEAD 

 NO OUTPUT CONTROL FOR STRESS PERIOD   39   TIME STEP  14
 
 SOLVING FOR HEAD 

 NO OUTPUT CONTROL FOR STRESS PERIOD   39   TIME STEP  15
 
 SOLVING FOR HEAD 

 NO OUTPUT CONTROL FOR STRESS PERIOD   39   TIME STEP  16
 
 SOLVING FOR HEAD 

 NO OUTPUT CONTROL FOR STRESS PERIOD   39   TIME STEP  17
 
 SOLVING FOR HEAD 

 NO OUTPUT CONTROL FOR STRESS PERIOD   39   TIME STEP  18
 
 SOLVING FOR HEAD 

 NO OUTPUT CONTROL FOR STRESS PERIOD   39   TIME STEP  19
 
 SOLVING FOR HEAD 

 NO OUTPUT CONTROL FOR STRESS PERIOD   39   TIME STEP  20
 
 SOLVING FOR HEAD 

 NO OUTPUT CONTROL FOR STRESS PERIOD   39   TIME STEP  21
 
 SOLVING FOR HEAD 

 NO OUTPUT CONTROL FOR STRESS PERIOD   39   TIME STEP  22
 
 SOLVING FOR HEAD 

 NO OUTPUT CONTROL FOR STRESS PERIOD   39   TIME STEP  23
 
 SOLVING FOR HEAD 

 NO OUTPUT CONTROL FOR STRESS PERIOD   39   TIME STEP  24
 
 SOLVING FOR HEAD 

 NO OUTPUT CONTROL FOR STRESS PERIOD   39   TIME STEP  25
 
 SOLVING FOR HEAD 

 NO OUTPUT CONTROL FOR STRESS PERIOD   39   TIME STEP  26
 
 SOLVING FOR HEAD 

 NO OUTPUT CONTROL FOR STRESS PERIOD   39   TIME STEP  27
 
 SOLVING FOR HEAD 

 NO OUTPUT CONTROL FOR STRESS PERIOD   39   TIME STEP  28
 
 SOLVING FOR HEAD 

 NO OUTPUT CONTROL FOR STRESS PERIOD   39   TIME STEP  29
 
 SOLVING FOR HEAD 

 NO OUTPUT CONTROL FOR STRESS PERIOD   39   TIME STEP  30
1
  VOLUMETRIC BUDGET FOR UNSATURATED ZONE BENEATH STREAMS AT END OF TIME STEP  30 STRESS PERIOD  39
  ------------------------------------------------------------------------------------------------

    CUMULATIVE VOLUMES             L**3    RATES FOR THIS TIME STEP         L**3/T
    ------------------                     ------------------------


          STREAM LOSS =     30939004.0000            STREAM LOSS =            0.1161
    CHANGE IN STORAGE =       353847.2188      CHANGE IN STORAGE =       -8.7888E-04
       RECHARGE TO GW =     30583778.0000         RECHARGE TO GW =            0.1170

             TOTAL IN =     30939004.0000               TOTAL IN =            0.1170

            TOTAL OUT =     30937626.0000              TOTAL OUT =            0.1170

             IN - OUT =         1378.0000               IN - OUT =        1.7986E-08

  PERCENT DISCREPANCY =            0.00      PERCENT DISCREPANCY =             0.00



1
  VOLUMETRIC BUDGET FOR ENTIRE MODEL AT END OF TIME STEP 30 IN STRESS PERIOD  39
  ------------------------------------------------------------------------------

     CUMULATIVE VOLUMES      L**3       RATES FOR THIS TIME STEP      L**3/T
     ------------------                 ------------------------

           IN:                                      IN:
           ---                                      ---
             STORAGE =    16332192.0000               STORAGE =       7.7431E-02
       CONSTANT HEAD =           0.0000         CONSTANT HEAD =           0.0000
     HEAD DEP BOUNDS =           0.0000       HEAD DEP BOUNDS =           0.0000
      STREAM LEAKAGE =    30583360.0000        STREAM LEAKAGE =           0.1170

            TOTAL IN =    46915552.0000              TOTAL IN =           0.1944

          OUT:                                     OUT:
          ----                                     ----
             STORAGE =    15955692.0000               STORAGE =           0.0000
       CONSTANT HEAD =           0.0000         CONSTANT HEAD =           0.0000
     HEAD DEP BOUNDS =    30958878.0000       HEAD DEP BOUNDS =           0.1943
      STREAM LEAKAGE =           0.0000        STREAM LEAKAGE =           0.0000

           TOTAL OUT =    46914568.0000             TOTAL OUT =           0.1943

            IN - OUT =         984.0000              IN - OUT =       6.1914E-05

 PERCENT DISCREPANCY =           0.00     PERCENT DISCREPANCY =           0.03






          TIME SUMMARY AT END OF TIME STEP  30 IN STRESS PERIOD   39
                    SECONDS     MINUTES      HOURS       DAYS        YEARS
                    -----------------------------------------------------------
   TIME STEP LENGTH 2.49961E+05  4166.0      69.434      2.8931     7.92080E-03
 STRESS PERIOD TIME 2.59200E+06  43200.      720.00      30.000     8.21355E-02
         TOTAL TIME 1.01088E+08 1.68480E+06  28080.      1170.0      3.2033    
1
1
                            STRESS PERIOD NO.   40, LENGTH =   2592000.    
                            -----------------------------------------------

                              NUMBER OF TIME STEPS =    30

                               MULTIPLIER FOR DELT =     1.100

                            INITIAL TIME STEP SIZE =   15757.40    

 REUSING NON-PARAMETER GHB CELLS FROM LAST STRESS PERIOD

      7 GHB CELLS



 CLASSIFICATION & COUNT OF STREAM SEGMENTS BASED ON SOURCE OF INFLOW:

                HEADWATER     DIVERSION     RECEIVES TRIBUTARY FLOW
                ---------     ---------     -----------------------
                     1              0               0



                    INPUT DATA FOR EACH STREAM SEGMENT
 ---------------------------------------------------------------------------------------------

 SEGMENT    SEG.     INFLOW   OVERLAND   STREAM    STREAM   ICALC  OUTFLOW  DIVERSION PRIORITY
    NO.    LENGTH     RATE     RUNOFF      ET       PPT.    METH.  TO SEG.  FROM SEG.    NO.

      1  2.000E+04 2.460E+00 0.000E+00 0.000E+00 0.000E+00    2        0        0        0


         STREAMBED PROPERTIES AND STREAM DIMENSIONS

 SEGMENT     BED HYD. COND.      BED THICKNESS     ELEV.-TOP OF BED     WIDTH OF STREAM     DEPTH OF STREAM    STREAM ROUGHNESS
    No.     UPPER     LOWER     UPPER     LOWER     UPPER     LOWER     UPPER     LOWER     UPPER     LOWER   CHANNEL      BANK

     1  3.500E-07 3.500E-07                                                                                 3.000E-02 4.000E-02

  EIGHT POINT CROSS-SECTION DATA FOR SEGMENTS WITH ICALC = 2
    X VALUES X VALUES START FROM LEFT SIDE LOOKING DOWNSTREAM

     SEGMENT NO.        X1        X2        X3        X4        X5        X6        X7        X8
            1      0.000E+00 2.000E+00 4.000E+00 6.000E+00 8.000E+00 1.000E+01 1.200E+01 1.400E+01

    Z VALUES ARE RELATIVE TO STREAMBED ELEVATION

     SEGMENT NO.          Z1        Z2        Z3        Z4        Z5        Z6        Z7        Z8
            1      6.000E+00 4.500E+00 3.500E+00 0.000E+00 3.000E-01 3.500E+00 4.500E+00 6.000E+00



 
 SOLVING FOR HEAD 

 NO OUTPUT CONTROL FOR STRESS PERIOD   40   TIME STEP   1
 
 SOLVING FOR HEAD 

 NO OUTPUT CONTROL FOR STRESS PERIOD   40   TIME STEP   2
 
 SOLVING FOR HEAD 

 NO OUTPUT CONTROL FOR STRESS PERIOD   40   TIME STEP   3
 
 SOLVING FOR HEAD 

 NO OUTPUT CONTROL FOR STRESS PERIOD   40   TIME STEP   4
 
 SOLVING FOR HEAD 

 NO OUTPUT CONTROL FOR STRESS PERIOD   40   TIME STEP   5
 
 SOLVING FOR HEAD 

 NO OUTPUT CONTROL FOR STRESS PERIOD   40   TIME STEP   6
 
 SOLVING FOR HEAD 

 NO OUTPUT CONTROL FOR STRESS PERIOD   40   TIME STEP   7
 
 SOLVING FOR HEAD 

 NO OUTPUT CONTROL FOR STRESS PERIOD   40   TIME STEP   8
 
 SOLVING FOR HEAD 

 NO OUTPUT CONTROL FOR STRESS PERIOD   40   TIME STEP   9
 
 SOLVING FOR HEAD 

 NO OUTPUT CONTROL FOR STRESS PERIOD   40   TIME STEP  10
 
 SOLVING FOR HEAD 

 NO OUTPUT CONTROL FOR STRESS PERIOD   40   TIME STEP  11
 
 SOLVING FOR HEAD 

 NO OUTPUT CONTROL FOR STRESS PERIOD   40   TIME STEP  12
 
 SOLVING FOR HEAD 

 NO OUTPUT CONTROL FOR STRESS PERIOD   40   TIME STEP  13
 
 SOLVING FOR HEAD 

 NO OUTPUT CONTROL FOR STRESS PERIOD   40   TIME STEP  14
 
 SOLVING FOR HEAD 

 NO OUTPUT CONTROL FOR STRESS PERIOD   40   TIME STEP  15
 
 SOLVING FOR HEAD 

 NO OUTPUT CONTROL FOR STRESS PERIOD   40   TIME STEP  16
 
 SOLVING FOR HEAD 

 NO OUTPUT CONTROL FOR STRESS PERIOD   40   TIME STEP  17
 
 SOLVING FOR HEAD 

 NO OUTPUT CONTROL FOR STRESS PERIOD   40   TIME STEP  18
 
 SOLVING FOR HEAD 

 NO OUTPUT CONTROL FOR STRESS PERIOD   40   TIME STEP  19
 
 SOLVING FOR HEAD 

 NO OUTPUT CONTROL FOR STRESS PERIOD   40   TIME STEP  20
 
 SOLVING FOR HEAD 

 NO OUTPUT CONTROL FOR STRESS PERIOD   40   TIME STEP  21
 
 SOLVING FOR HEAD 

 NO OUTPUT CONTROL FOR STRESS PERIOD   40   TIME STEP  22
 
 SOLVING FOR HEAD 

 NO OUTPUT CONTROL FOR STRESS PERIOD   40   TIME STEP  23
 
 SOLVING FOR HEAD 

 NO OUTPUT CONTROL FOR STRESS PERIOD   40   TIME STEP  24
 
 SOLVING FOR HEAD 

 NO OUTPUT CONTROL FOR STRESS PERIOD   40   TIME STEP  25
 
 SOLVING FOR HEAD 

 NO OUTPUT CONTROL FOR STRESS PERIOD   40   TIME STEP  26
 
 SOLVING FOR HEAD 

 NO OUTPUT CONTROL FOR STRESS PERIOD   40   TIME STEP  27
 
 SOLVING FOR HEAD 

 NO OUTPUT CONTROL FOR STRESS PERIOD   40   TIME STEP  28
 
 SOLVING FOR HEAD 

 NO OUTPUT CONTROL FOR STRESS PERIOD   40   TIME STEP  29
 
 SOLVING FOR HEAD 

 OUTPUT CONTROL FOR STRESS PERIOD   40   TIME STEP  30
    PRINT HEAD FOR ALL LAYERS
    PRINT BUDGET
    SAVE BUDGET

  HEAD DEP BOUNDS   PERIOD   40   STEP  30
 BOUNDARY      1   LAYER   1   ROW     1   COL   100   RATE   -2.868809E-02
 BOUNDARY      2   LAYER   1   ROW     2   COL   100   RATE   -2.870235E-02
 BOUNDARY      3   LAYER   1   ROW     3   COL   100   RATE   -2.847187E-02
 BOUNDARY      4   LAYER   1   ROW     4   COL   100   RATE   -2.085556E-02
 BOUNDARY      5   LAYER   1   ROW     5   COL   100   RATE   -2.847187E-02
 BOUNDARY      6   LAYER   1   ROW     6   COL   100   RATE   -2.870235E-02
 BOUNDARY      7   LAYER   1   ROW     7   COL   100   RATE   -2.868809E-02



 STREAM LISTING     PERIOD     40   STEP       30

 LAYER ROW COL. STREAM  RCH.   FLOW INTO    STREAM     FLOW OUT OF   OVRLND.    DIRECT     STREAM      STREAM      STREAM     STREAM  STREAMBED   FLOW TO   CHNG. UNSAT. 
                SEG.NO.  NO.   STRM. RCH.    LOSS       STRM. RCH.   RUNOFF     PRECIP       ET         HEAD        DEPTH      WIDTH  CONDCTNC.   WAT. TAB.   STORAGE

   1    4    1     1     1    2.4600E+00  1.0252E-03   2.4590E+00  0.000E+00  0.000E+00  0.000E+00  1.41018E+02  1.168E+00  3.210E+00  6.147E-04  1.039E-03 -1.403E-05
   1    4    2     1     2    2.4590E+00  1.0249E-03   2.4579E+00  0.000E+00  0.000E+00  0.000E+00  1.40718E+02  1.168E+00  3.209E+00  6.146E-04  1.038E-03 -1.305E-05
   1    4    3     1     3    2.4579E+00  1.0246E-03   2.4569E+00  0.000E+00  0.000E+00  0.000E+00  1.40417E+02  1.167E+00  3.209E+00  6.145E-04  1.036E-03 -1.108E-05
   1    4    4     1     4    2.4569E+00  1.0243E-03   2.4559E+00  0.000E+00  0.000E+00  0.000E+00  1.40117E+02  1.167E+00  3.209E+00  6.145E-04  1.034E-03 -1.019E-05
   1    4    5     1     5    2.4559E+00  1.0240E-03   2.4549E+00  0.000E+00  0.000E+00  0.000E+00  1.39817E+02  1.167E+00  3.208E+00  6.144E-04  1.034E-03 -1.014E-05
   1    4    6     1     6    2.4549E+00  1.0237E-03   2.4539E+00  0.000E+00  0.000E+00  0.000E+00  1.39517E+02  1.167E+00  3.208E+00  6.143E-04  1.034E-03 -1.006E-05
   1    4    7     1     7    2.4539E+00  1.0234E-03   2.4528E+00  0.000E+00  0.000E+00  0.000E+00  1.39216E+02  1.166E+00  3.208E+00  6.142E-04  1.033E-03 -9.985E-06
   1    4    8     1     8    2.4528E+00  1.0231E-03   2.4518E+00  0.000E+00  0.000E+00  0.000E+00  1.38916E+02  1.166E+00  3.208E+00  6.141E-04  1.033E-03 -9.896E-06
   1    4    9     1     9    2.4518E+00  1.0228E-03   2.4508E+00  0.000E+00  0.000E+00  0.000E+00  1.38616E+02  1.166E+00  3.207E+00  6.140E-04  1.033E-03 -9.798E-06
   1    4   10     1    10    2.4508E+00  1.0226E-03   2.4498E+00  0.000E+00  0.000E+00  0.000E+00  1.38316E+02  1.166E+00  3.207E+00  6.140E-04  1.032E-03 -9.692E-06
   1    4   11     1    11    2.4498E+00  1.0223E-03   2.4487E+00  0.000E+00  0.000E+00  0.000E+00  1.38015E+02  1.165E+00  3.207E+00  6.139E-04  1.032E-03 -9.577E-06
   1    4   12     1    12    2.4487E+00  1.0220E-03   2.4477E+00  0.000E+00  0.000E+00  0.000E+00  1.37715E+02  1.165E+00  3.206E+00  6.138E-04  1.031E-03 -9.454E-06
   1    4   13     1    13    2.4477E+00  1.0217E-03   2.4467E+00  0.000E+00  0.000E+00  0.000E+00  1.37415E+02  1.165E+00  3.206E+00  6.137E-04  1.031E-03 -9.323E-06
   1    4   14     1    14    2.4467E+00  1.0214E-03   2.4457E+00  0.000E+00  0.000E+00  0.000E+00  1.37115E+02  1.165E+00  3.206E+00  6.136E-04  1.031E-03 -9.184E-06
   1    4   15     1    15    2.4457E+00  1.0211E-03   2.4447E+00  0.000E+00  0.000E+00  0.000E+00  1.36814E+02  1.164E+00  3.205E+00  6.135E-04  1.030E-03 -9.037E-06
   1    4   16     1    16    2.4447E+00  1.0208E-03   2.4436E+00  0.000E+00  0.000E+00  0.000E+00  1.36514E+02  1.164E+00  3.205E+00  6.135E-04  1.030E-03 -8.883E-06
   1    4   17     1    17    2.4436E+00  1.0205E-03   2.4426E+00  0.000E+00  0.000E+00  0.000E+00  1.36214E+02  1.164E+00  3.205E+00  6.134E-04  1.029E-03 -8.723E-06
   1    4   18     1    18    2.4426E+00  1.0202E-03   2.4416E+00  0.000E+00  0.000E+00  0.000E+00  1.35913E+02  1.164E+00  3.205E+00  6.133E-04  1.029E-03 -8.555E-06
   1    4   19     1    19    2.4416E+00  1.0199E-03   2.4406E+00  0.000E+00  0.000E+00  0.000E+00  1.35613E+02  1.163E+00  3.204E+00  6.132E-04  1.028E-03 -8.381E-06
   1    4   20     1    20    2.4406E+00  1.0197E-03   2.4396E+00  0.000E+00  0.000E+00  0.000E+00  1.35313E+02  1.163E+00  3.204E+00  6.131E-04  1.028E-03 -8.199E-06
   1    4   21     1    21    2.4396E+00  1.0194E-03   2.4385E+00  0.000E+00  0.000E+00  0.000E+00  1.35013E+02  1.163E+00  3.204E+00  6.131E-04  1.027E-03 -8.011E-06
   1    4   22     1    22    2.4385E+00  1.0191E-03   2.4375E+00  0.000E+00  0.000E+00  0.000E+00  1.34713E+02  1.163E+00  3.203E+00  6.130E-04  1.027E-03 -7.819E-06
   1    4   23     1    23    2.4375E+00  1.0188E-03   2.4365E+00  0.000E+00  0.000E+00  0.000E+00  1.34412E+02  1.162E+00  3.203E+00  6.129E-04  1.026E-03 -7.620E-06
   1    4   24     1    24    2.4365E+00  1.0185E-03   2.4355E+00  0.000E+00  0.000E+00  0.000E+00  1.34112E+02  1.162E+00  3.203E+00  6.128E-04  1.026E-03 -7.416E-06
   1    4   25     1    25    2.4355E+00  1.0182E-03   2.4345E+00  0.000E+00  0.000E+00  0.000E+00  1.33812E+02  1.162E+00  3.202E+00  6.127E-04  1.025E-03 -7.208E-06
   1    4   26     1    26    2.4345E+00  1.0179E-03   2.4334E+00  0.000E+00  0.000E+00  0.000E+00  1.33512E+02  1.161E+00  3.202E+00  6.126E-04  1.025E-03 -6.994E-06
   1    4   27     1    27    2.4334E+00  1.0176E-03   2.4324E+00  0.000E+00  0.000E+00  0.000E+00  1.33211E+02  1.161E+00  3.202E+00  6.126E-04  1.024E-03 -6.775E-06
   1    4   28     1    28    2.4324E+00  1.0173E-03   2.4314E+00  0.000E+00  0.000E+00  0.000E+00  1.32911E+02  1.161E+00  3.202E+00  6.125E-04  1.024E-03 -6.553E-06
   1    4   29     1    29    2.4314E+00  1.0170E-03   2.4304E+00  0.000E+00  0.000E+00  0.000E+00  1.32611E+02  1.161E+00  3.201E+00  6.124E-04  1.023E-03 -6.326E-06
   1    4   30     1    30    2.4304E+00  1.0168E-03   2.4294E+00  0.000E+00  0.000E+00  0.000E+00  1.32310E+02  1.160E+00  3.201E+00  6.123E-04  1.023E-03 -6.096E-06
   1    4   31     1    31    2.4294E+00  1.0165E-03   2.4284E+00  0.000E+00  0.000E+00  0.000E+00  1.32010E+02  1.160E+00  3.201E+00  6.122E-04  1.022E-03 -5.863E-06
   1    4   32     1    32    2.4284E+00  1.0162E-03   2.4273E+00  0.000E+00  0.000E+00  0.000E+00  1.31710E+02  1.160E+00  3.200E+00  6.122E-04  1.022E-03 -5.626E-06
   1    4   33     1    33    2.4273E+00  1.0159E-03   2.4263E+00  0.000E+00  0.000E+00  0.000E+00  1.31410E+02  1.160E+00  3.200E+00  6.121E-04  1.021E-03 -5.389E-06
   1    4   34     1    34    2.4263E+00  1.0156E-03   2.4253E+00  0.000E+00  0.000E+00  0.000E+00  1.31109E+02  1.159E+00  3.200E+00  6.120E-04  1.021E-03 -5.149E-06
   1    4   35     1    35    2.4253E+00  1.0153E-03   2.4243E+00  0.000E+00  0.000E+00  0.000E+00  1.30809E+02  1.159E+00  3.199E+00  6.119E-04  1.020E-03 -4.906E-06
   1    4   36     1    36    2.4243E+00  1.0150E-03   2.4233E+00  0.000E+00  0.000E+00  0.000E+00  1.30509E+02  1.159E+00  3.199E+00  6.118E-04  1.020E-03 -4.662E-06
   1    4   37     1    37    2.4233E+00  1.0147E-03   2.4223E+00  0.000E+00  0.000E+00  0.000E+00  1.30209E+02  1.159E+00  3.199E+00  6.117E-04  1.019E-03 -4.418E-06
   1    4   38     1    38    2.4223E+00  1.0144E-03   2.4212E+00  0.000E+00  0.000E+00  0.000E+00  1.29908E+02  1.158E+00  3.199E+00  6.117E-04  1.019E-03 -4.173E-06
   1    4   39     1    39    2.4212E+00  1.0141E-03   2.4202E+00  0.000E+00  0.000E+00  0.000E+00  1.29608E+02  1.158E+00  3.198E+00  6.116E-04  1.018E-03 -3.928E-06
   1    4   40     1    40    2.4202E+00  1.0139E-03   2.4192E+00  0.000E+00  0.000E+00  0.000E+00  1.29308E+02  1.158E+00  3.198E+00  6.115E-04  1.018E-03 -3.684E-06
   1    4   41     1    41    2.4192E+00  1.0136E-03   2.4182E+00  0.000E+00  0.000E+00  0.000E+00  1.29008E+02  1.158E+00  3.198E+00  6.114E-04  1.017E-03 -3.439E-06
   1    4   42     1    42    2.4182E+00  1.0133E-03   2.4172E+00  0.000E+00  0.000E+00  0.000E+00  1.28707E+02  1.157E+00  3.197E+00  6.113E-04  1.016E-03 -3.197E-06
   1    4   43     1    43    2.4172E+00  1.0130E-03   2.4162E+00  0.000E+00  0.000E+00  0.000E+00  1.28407E+02  1.157E+00  3.197E+00  6.113E-04  1.016E-03 -2.956E-06
   1    4   44     1    44    2.4162E+00  1.0127E-03   2.4152E+00  0.000E+00  0.000E+00  0.000E+00  1.28107E+02  1.157E+00  3.197E+00  6.112E-04  1.015E-03 -2.718E-06
   1    4   45     1    45    2.4152E+00  1.0124E-03   2.4142E+00  0.000E+00  0.000E+00  0.000E+00  1.27807E+02  1.157E+00  3.196E+00  6.111E-04  1.015E-03 -2.483E-06
   1    4   46     1    46    2.4142E+00  1.0121E-03   2.4131E+00  0.000E+00  0.000E+00  0.000E+00  1.27506E+02  1.156E+00  3.196E+00  6.110E-04  1.014E-03 -2.251E-06
   1    4   47     1    47    2.4131E+00  1.0118E-03   2.4121E+00  0.000E+00  0.000E+00  0.000E+00  1.27206E+02  1.156E+00  3.196E+00  6.109E-04  1.014E-03 -2.022E-06
   1    4   48     1    48    2.4121E+00  1.0115E-03   2.4111E+00  0.000E+00  0.000E+00  0.000E+00  1.26906E+02  1.156E+00  3.196E+00  6.108E-04  1.013E-03 -1.798E-06
   1    4   49     1    49    2.4111E+00  1.0113E-03   2.4101E+00  0.000E+00  0.000E+00  0.000E+00  1.26606E+02  1.156E+00  3.195E+00  6.108E-04  1.013E-03 -1.579E-06
   1    4   50     1    50    2.4101E+00  1.0110E-03   2.4091E+00  0.000E+00  0.000E+00  0.000E+00  1.26305E+02  1.155E+00  3.195E+00  6.107E-04  1.012E-03 -1.449E-06
   1    4   51     1    51    2.4091E+00  1.0107E-03   2.4081E+00  0.000E+00  0.000E+00  0.000E+00  1.26005E+02  1.155E+00  3.195E+00  6.106E-04  1.012E-03 -1.243E-06
   1    4   52     1    52    2.4081E+00  1.0104E-03   2.4071E+00  0.000E+00  0.000E+00  0.000E+00  1.25705E+02  1.155E+00  3.194E+00  6.105E-04  1.011E-03 -1.043E-06
   1    4   53     1    53    2.4071E+00  1.0101E-03   2.4061E+00  0.000E+00  0.000E+00  0.000E+00  1.25405E+02  1.155E+00  3.194E+00  6.104E-04  1.011E-03 -4.719E-07
   1    4   54     1    54    2.4061E+00  1.0098E-03   2.4051E+00  0.000E+00  0.000E+00  0.000E+00  1.25104E+02  1.154E+00  3.194E+00  6.104E-04  1.009E-03  7.674E-07
   1    4   55     1    55    2.4051E+00  1.0095E-03   2.4040E+00  0.000E+00  0.000E+00  0.000E+00  1.24804E+02  1.154E+00  3.193E+00  6.103E-04  1.009E-03  9.005E-07
   1    4   56     1    56    2.4040E+00  1.0092E-03   2.4030E+00  0.000E+00  0.000E+00  0.000E+00  1.24504E+02  1.154E+00  3.193E+00  6.102E-04  1.008E-03  1.026E-06
   1    4   57     1    57    2.4030E+00  1.0090E-03   2.4020E+00  0.000E+00  0.000E+00  0.000E+00  1.24204E+02  1.154E+00  3.193E+00  6.101E-04  1.008E-03  1.143E-06
   1    4   58     1    58    2.4020E+00  1.0087E-03   2.4010E+00  0.000E+00  0.000E+00  0.000E+00  1.23903E+02  1.153E+00  3.193E+00  6.100E-04  1.007E-03  1.252E-06
   1    4   59     1    59    2.4010E+00  1.0084E-03   2.4000E+00  0.000E+00  0.000E+00  0.000E+00  1.23603E+02  1.153E+00  3.192E+00  6.099E-04  1.007E-03  1.349E-06
   1    4   60     1    60    2.4000E+00  1.0081E-03   2.3990E+00  0.000E+00  0.000E+00  0.000E+00  1.23303E+02  1.153E+00  3.192E+00  6.099E-04  1.007E-03  1.436E-06
   1    4   61     1    61    2.3990E+00  1.0078E-03   2.3980E+00  0.000E+00  0.000E+00  0.000E+00  1.23003E+02  1.153E+00  3.192E+00  6.098E-04  1.006E-03  1.510E-06
   1    4   62     1    62    2.3980E+00  1.0075E-03   2.3970E+00  0.000E+00  0.000E+00  0.000E+00  1.22702E+02  1.152E+00  3.191E+00  6.097E-04  1.006E-03  1.572E-06
   1    4   63     1    63    2.3970E+00  1.0072E-03   2.3960E+00  0.000E+00  0.000E+00  0.000E+00  1.22402E+02  1.152E+00  3.191E+00  6.096E-04  1.006E-03  7.440E-07
   1    4   64     1    64    2.3960E+00  1.0069E-03   2.3950E+00  0.000E+00  0.000E+00  0.000E+00  1.22102E+02  1.152E+00  3.191E+00  6.095E-04  1.010E-03 -2.744E-06
   1    4   65     1    65    2.3950E+00  1.0067E-03   2.3940E+00  0.000E+00  0.000E+00  0.000E+00  1.21802E+02  1.152E+00  3.190E+00  6.095E-04  1.009E-03 -2.723E-06
   1    4   66     1    66    2.3940E+00  1.0064E-03   2.3930E+00  0.000E+00  0.000E+00  0.000E+00  1.21501E+02  1.151E+00  3.190E+00  6.094E-04  1.009E-03 -2.717E-06
   1    4   67     1    67    2.3930E+00  1.0061E-03   2.3920E+00  0.000E+00  0.000E+00  0.000E+00  1.21201E+02  1.151E+00  3.190E+00  6.093E-04  1.009E-03 -2.726E-06
   1    4   68     1    68    2.3920E+00  1.0058E-03   2.3909E+00  0.000E+00  0.000E+00  0.000E+00  1.20901E+02  1.151E+00  3.190E+00  6.092E-04  1.009E-03 -2.752E-06
   1    4   69     1    69    2.3909E+00  1.0055E-03   2.3899E+00  0.000E+00  0.000E+00  0.000E+00  1.20601E+02  1.151E+00  3.189E+00  6.091E-04  1.008E-03 -2.796E-06
   1    4   70     1    70    2.3899E+00  1.0052E-03   2.3889E+00  0.000E+00  0.000E+00  0.000E+00  1.20300E+02  1.150E+00  3.189E+00  6.090E-04  1.008E-03 -2.858E-06
   1    4   71     1    71    2.3889E+00  1.0049E-03   2.3879E+00  0.000E+00  0.000E+00  0.000E+00  1.20000E+02  1.150E+00  3.189E+00  6.090E-04  1.008E-03 -2.941E-06
   1    4   72     1    72    2.3879E+00  1.0046E-03   2.3869E+00  0.000E+00  0.000E+00  0.000E+00  1.19700E+02  1.150E+00  3.188E+00  6.089E-04  1.008E-03 -3.043E-06
   1    4   73     1    73    2.3869E+00  1.0044E-03   2.3859E+00  0.000E+00  0.000E+00  0.000E+00  1.19400E+02  1.150E+00  3.188E+00  6.088E-04  1.008E-03 -3.168E-06
   1    4   74     1    74    2.3859E+00  1.0041E-03   2.3849E+00  0.000E+00  0.000E+00  0.000E+00  1.19099E+02  1.149E+00  3.188E+00  6.087E-04  1.007E-03 -3.313E-06
   1    4   75     1    75    2.3849E+00  1.0038E-03   2.3839E+00  0.000E+00  0.000E+00  0.000E+00  1.18799E+02  1.149E+00  3.187E+00  6.086E-04  1.007E-03 -3.479E-06
   1    4   76     1    76    2.3839E+00  1.0035E-03   2.3829E+00  0.000E+00  0.000E+00  0.000E+00  1.18499E+02  1.149E+00  3.187E+00  6.086E-04  1.007E-03 -3.669E-06
   1    4   77     1    77    2.3829E+00  1.0032E-03   2.3819E+00  0.000E+00  0.000E+00  0.000E+00  1.18199E+02  1.149E+00  3.187E+00  6.085E-04  1.007E-03 -3.878E-06
   1    4   78     1    78    2.3819E+00  1.0029E-03   2.3809E+00  0.000E+00  0.000E+00  0.000E+00  1.17898E+02  1.148E+00  3.187E+00  6.084E-04  1.007E-03 -4.110E-06
   1    4   79     1    79    2.3809E+00  1.0026E-03   2.3799E+00  0.000E+00  0.000E+00  0.000E+00  1.17598E+02  1.148E+00  3.186E+00  6.083E-04  1.007E-03 -4.363E-06
   1    4   80     1    80    2.3799E+00  1.0024E-03   2.3789E+00  0.000E+00  0.000E+00  0.000E+00  1.17298E+02  1.148E+00  3.186E+00  6.082E-04  1.007E-03 -4.636E-06
   1    4   81     1    81    2.3789E+00  1.0021E-03   2.3779E+00  0.000E+00  0.000E+00  0.000E+00  1.16998E+02  1.148E+00  3.186E+00  6.082E-04  1.007E-03 -4.929E-06
   1    4   82     1    82    2.3779E+00  1.0018E-03   2.3769E+00  0.000E+00  0.000E+00  0.000E+00  1.16697E+02  1.147E+00  3.185E+00  6.081E-04  1.007E-03 -5.241E-06
   1    4   83     1    83    2.3769E+00  1.0015E-03   2.3759E+00  0.000E+00  0.000E+00  0.000E+00  1.16397E+02  1.147E+00  3.185E+00  6.080E-04  1.007E-03 -5.569E-06
   1    4   84     1    84    2.3759E+00  1.0012E-03   2.3749E+00  0.000E+00  0.000E+00  0.000E+00  1.16097E+02  1.147E+00  3.185E+00  6.079E-04  1.007E-03 -5.913E-06
   1    4   85     1    85    2.3749E+00  1.0009E-03   2.3739E+00  0.000E+00  0.000E+00  0.000E+00  1.15797E+02  1.147E+00  3.184E+00  6.078E-04  1.008E-03 -6.824E-06
   1    4   86     1    86    2.3739E+00  1.0006E-03   2.3729E+00  0.000E+00  0.000E+00  0.000E+00  1.15496E+02  1.146E+00  3.184E+00  6.077E-04  1.008E-03 -7.229E-06
   1    4   87     1    87    2.3729E+00  1.0004E-03   2.3719E+00  0.000E+00  0.000E+00  0.000E+00  1.15196E+02  1.146E+00  3.184E+00  6.077E-04  1.008E-03 -7.646E-06
   1    4   88     1    88    2.3719E+00  1.0001E-03   2.3709E+00  0.000E+00  0.000E+00  0.000E+00  1.14896E+02  1.146E+00  3.184E+00  6.076E-04  1.008E-03 -8.073E-06
   1    4   89     1    89    2.3709E+00  9.9978E-04   2.3699E+00  0.000E+00  0.000E+00  0.000E+00  1.14596E+02  1.146E+00  3.183E+00  6.075E-04  1.008E-03 -8.510E-06
   1    4   90     1    90    2.3699E+00  9.9950E-04   2.3689E+00  0.000E+00  0.000E+00  0.000E+00  1.14295E+02  1.145E+00  3.183E+00  6.074E-04  1.008E-03 -8.956E-06
   1    4   91     1    91    2.3689E+00  9.9921E-04   2.3679E+00  0.000E+00  0.000E+00  0.000E+00  1.13995E+02  1.145E+00  3.183E+00  6.073E-04  1.009E-03 -9.412E-06
   1    4   92     1    92    2.3679E+00  9.9893E-04   2.3669E+00  0.000E+00  0.000E+00  0.000E+00  1.13695E+02  1.145E+00  3.182E+00  6.073E-04  1.009E-03 -9.879E-06
   1    4   93     1    93    2.3669E+00  9.9864E-04   2.3659E+00  0.000E+00  0.000E+00  0.000E+00  1.13395E+02  1.145E+00  3.182E+00  6.072E-04  1.009E-03 -1.036E-05
   1    4   94     1    94    2.3659E+00  9.9836E-04   2.3649E+00  0.000E+00  0.000E+00  0.000E+00  1.13094E+02  1.144E+00  3.182E+00  6.071E-04  1.009E-03 -1.086E-05
   1    4   95     1    95    2.3649E+00  9.9807E-04   2.3639E+00  0.000E+00  0.000E+00  0.000E+00  1.12794E+02  1.144E+00  3.181E+00  6.070E-04  1.009E-03 -1.138E-05
   1    4   96     1    96    2.3639E+00  9.9779E-04   2.3629E+00  0.000E+00  0.000E+00  0.000E+00  1.12494E+02  1.144E+00  3.181E+00  6.069E-04  1.010E-03 -1.193E-05
   1    4   97     1    97    2.3629E+00  9.9750E-04   2.3619E+00  0.000E+00  0.000E+00  0.000E+00  1.12194E+02  1.144E+00  3.181E+00  6.068E-04  1.010E-03 -1.251E-05
   1    4   98     1    98    2.3619E+00  9.9721E-04   2.3609E+00  0.000E+00  0.000E+00  0.000E+00  1.11893E+02  1.143E+00  3.181E+00  6.068E-04  1.010E-03 -1.313E-05
   1    4   99     1    99    2.3609E+00  9.9693E-04   2.3599E+00  0.000E+00  0.000E+00  0.000E+00  1.11593E+02  1.143E+00  3.180E+00  6.067E-04  1.011E-03 -1.378E-05
   1    4  100     1   100    2.3599E+00  9.9664E-04   2.3589E+00  0.000E+00  0.000E+00  0.000E+00  1.11293E+02  1.143E+00  3.180E+00  6.066E-04  1.020E-03 -2.376E-05



1
  VOLUMETRIC BUDGET FOR UNSATURATED ZONE BENEATH STREAMS AT END OF TIME STEP  30 STRESS PERIOD  40
  ------------------------------------------------------------------------------------------------

    CUMULATIVE VOLUMES             L**3    RATES FOR THIS TIME STEP         L**3/T
    ------------------                     ------------------------


          STREAM LOSS =     31201316.0000            STREAM LOSS =            0.1011
    CHANGE IN STORAGE =       341007.1250      CHANGE IN STORAGE =       -5.8263E-04
       RECHARGE TO GW =     30858638.0000         RECHARGE TO GW =            0.1017

             TOTAL IN =     31201316.0000               TOTAL IN =            0.1017

            TOTAL OUT =     31199646.0000              TOTAL OUT =            0.1017

             IN - OUT =         1670.0000               IN - OUT =        4.5286E-08

  PERCENT DISCREPANCY =            0.00      PERCENT DISCREPANCY =             0.00



1
              HEAD IN LAYER   1 AT END OF TIME STEP  30 IN STRESS PERIOD   40
  ---------------------------------------------------------------------------

          1      2      3      4      5      6      7      8      9     10
         11     12     13     14     15     16     17     18     19     20
         21     22     23     24     25     26     27     28     29     30
         31     32     33     34     35     36     37     38     39     40
         41     42     43     44     45     46     47     48     49     50
         51     52     53     54     55     56     57     58     59     60
         61     62     63     64     65     66     67     68     69     70
         71     72     73     74     75     76     77     78     79     80
         81     82     83     84     85     86     87     88     89     90
         91     92     93     94     95     96     97     98     99    100
 .........................................................................
   1   114.9  114.9  114.9  114.9  114.9  114.8  114.8  114.8  114.7  114.7
       114.6  114.6  114.5  114.5  114.4  114.3  114.2  114.1  114.0  113.9
       113.8  113.7  113.6  113.5  113.4  113.2  113.1  112.9  112.8  112.6
       112.5  112.3  112.1  111.9  111.7  111.5  111.3  111.1  110.9  110.6
       110.4  110.1  109.9  109.6  109.3  109.1  108.8  108.5  108.1  107.8
       107.5  107.1  106.8  106.4  106.0  105.7  105.3  104.8  104.4  104.0
       103.6  103.1  102.6  102.1  101.7  101.2  100.6  100.1   99.6   99.0
        98.4   97.8   97.2   96.6   96.0   95.4   94.7   94.0   93.3   92.6
        91.9   91.2   90.4   89.7   88.9   88.1   87.3   86.4   85.6   84.7
        83.8   82.9   82.0   81.0   80.1   79.1   78.1   77.1   76.1   75.0
   2   114.9  114.9  114.9  114.9  114.9  114.8  114.8  114.8  114.7  114.7
       114.6  114.6  114.5  114.5  114.4  114.3  114.2  114.1  114.0  113.9
       113.8  113.7  113.6  113.5  113.4  113.2  113.1  112.9  112.8  112.6
       112.5  112.3  112.1  111.9  111.7  111.5  111.3  111.1  110.9  110.6
       110.4  110.1  109.9  109.6  109.3  109.1  108.8  108.5  108.1  107.8
       107.5  107.1  106.8  106.4  106.0  105.7  105.3  104.8  104.4  104.0
       103.6  103.1  102.6  102.1  101.7  101.2  100.6  100.1   99.6   99.0
        98.4   97.8   97.2   96.6   96.0   95.4   94.7   94.0   93.3   92.6
        91.9   91.2   90.4   89.7   88.9   88.1   87.3   86.4   85.6   84.7
        83.8   82.9   82.0   81.0   80.1   79.1   78.1   77.1   76.1   75.0
   3   114.9  114.9  114.9  114.9  114.9  114.8  114.8  114.8  114.7  114.7
       114.6  114.6  114.5  114.5  114.4  114.3  114.2  114.1  114.0  113.9
       113.8  113.7  113.6  113.5  113.4  113.2  113.1  112.9  112.8  112.6
       112.5  112.3  112.1  111.9  111.7  111.5  111.3  111.1  110.9  110.6
       110.4  110.1  109.9  109.6  109.3  109.1  108.8  108.5  108.1  107.8
       107.5  107.1  106.8  106.4  106.0  105.7  105.3  104.8  104.4  104.0
       103.6  103.1  102.6  102.2  101.7  101.2  100.6  100.1   99.6   99.0
        98.4   97.8   97.2   96.6   96.0   95.4   94.7   94.0   93.3   92.6
        91.9   91.2   90.4   89.7   88.9   88.1   87.3   86.4   85.6   84.7
        83.8   82.9   82.0   81.1   80.1   79.1   78.1   77.1   76.1   75.0
   4   114.9  114.9  114.9  114.9  114.9  114.8  114.8  114.8  114.7  114.7
       114.6  114.6  114.5  114.5  114.4  114.3  114.2  114.1  114.0  114.0
       113.8  113.7  113.6  113.5  113.4  113.2  113.1  113.0  112.8  112.6
       112.5  112.3  112.1  111.9  111.7  111.5  111.3  111.1  110.9  110.6
       110.4  110.1  109.9  109.6  109.3  109.1  108.8  108.5  108.1  107.8
       107.5  107.1  106.8  106.4  106.0  105.7  105.3  104.9  104.4  104.0
       103.6  103.1  102.6  102.2  101.7  101.2  100.6  100.1   99.6   99.0
        98.4   97.8   97.2   96.6   96.0   95.4   94.7   94.0   93.3   92.6
        91.9   91.2   90.4   89.7   88.9   88.1   87.3   86.4   85.6   84.7
        83.8   82.9   82.0   81.1   80.1   79.1   78.1   77.1   76.1   75.0
   5   114.9  114.9  114.9  114.9  114.9  114.8  114.8  114.8  114.7  114.7
       114.6  114.6  114.5  114.5  114.4  114.3  114.2  114.1  114.0  113.9
       113.8  113.7  113.6  113.5  113.4  113.2  113.1  112.9  112.8  112.6
       112.5  112.3  112.1  111.9  111.7  111.5  111.3  111.1  110.9  110.6
       110.4  110.1  109.9  109.6  109.3  109.1  108.8  108.5  108.1  107.8
       107.5  107.1  106.8  106.4  106.0  105.7  105.3  104.8  104.4  104.0
       103.6  103.1  102.6  102.2  101.7  101.2  100.6  100.1   99.6   99.0
        98.4   97.8   97.2   96.6   96.0   95.4   94.7   94.0   93.3   92.6
        91.9   91.2   90.4   89.7   88.9   88.1   87.3   86.4   85.6   84.7
        83.8   82.9   82.0   81.1   80.1   79.1   78.1   77.1   76.1   75.0
   6   114.9  114.9  114.9  114.9  114.9  114.8  114.8  114.8  114.7  114.7
       114.6  114.6  114.5  114.5  114.4  114.3  114.2  114.1  114.0  113.9
       113.8  113.7  113.6  113.5  113.4  113.2  113.1  112.9  112.8  112.6
       112.5  112.3  112.1  111.9  111.7  111.5  111.3  111.1  110.9  110.6
       110.4  110.1  109.9  109.6  109.3  109.1  108.8  108.5  108.1  107.8
       107.5  107.1  106.8  106.4  106.0  105.7  105.3  104.8  104.4  104.0
       103.6  103.1  102.6  102.1  101.7  101.2  100.6  100.1   99.6   99.0
        98.4   97.8   97.2   96.6   96.0   95.4   94.7   94.0   93.3   92.6
        91.9   91.2   90.4   89.7   88.9   88.1   87.3   86.4   85.6   84.7
        83.8   82.9   82.0   81.0   80.1   79.1   78.1   77.1   76.1   75.0
   7   114.9  114.9  114.9  114.9  114.9  114.8  114.8  114.8  114.7  114.7
       114.6  114.6  114.5  114.5  114.4  114.3  114.2  114.1  114.0  113.9
       113.8  113.7  113.6  113.5  113.4  113.2  113.1  112.9  112.8  112.6
       112.5  112.3  112.1  111.9  111.7  111.5  111.3  111.1  110.9  110.6
       110.4  110.1  109.9  109.6  109.3  109.1  108.8  108.5  108.1  107.8
       107.5  107.1  106.8  106.4  106.0  105.7  105.3  104.8  104.4  104.0
       103.6  103.1  102.6  102.1  101.7  101.2  100.6  100.1   99.6   99.0
        98.4   97.8   97.2   96.6   96.0   95.4   94.7   94.0   93.3   92.6
        91.9   91.2   90.4   89.7   88.9   88.1   87.3   86.4   85.6   84.7
        83.8   82.9   82.0   81.0   80.1   79.1   78.1   77.1   76.1   75.0
1
  VOLUMETRIC BUDGET FOR ENTIRE MODEL AT END OF TIME STEP 30 IN STRESS PERIOD  40
  ------------------------------------------------------------------------------

     CUMULATIVE VOLUMES      L**3       RATES FOR THIS TIME STEP      L**3/T
     ------------------                 ------------------------

           IN:                                      IN:
           ---                                      ---
             STORAGE =    16559167.0000               STORAGE =       9.0970E-02
       CONSTANT HEAD =           0.0000         CONSTANT HEAD =           0.0000
     HEAD DEP BOUNDS =           0.0000       HEAD DEP BOUNDS =           0.0000
      STREAM LEAKAGE =    30858216.0000        STREAM LEAKAGE =           0.1017

            TOTAL IN =    47417384.0000              TOTAL IN =           0.1926

          OUT:                                     OUT:
          ----                                     ----
             STORAGE =    15955692.0000               STORAGE =           0.0000
       CONSTANT HEAD =           0.0000         CONSTANT HEAD =           0.0000
     HEAD DEP BOUNDS =    31460696.0000       HEAD DEP BOUNDS =           0.1926
      STREAM LEAKAGE =           0.0000        STREAM LEAKAGE =           0.0000

           TOTAL OUT =    47416388.0000             TOTAL OUT =           0.1926

            IN - OUT =         996.0000              IN - OUT =       5.7817E-05

 PERCENT DISCREPANCY =           0.00     PERCENT DISCREPANCY =           0.03






          TIME SUMMARY AT END OF TIME STEP  30 IN STRESS PERIOD   40
                    SECONDS     MINUTES      HOURS       DAYS        YEARS
                    -----------------------------------------------------------
   TIME STEP LENGTH 2.49961E+05  4166.0      69.434      2.8931     7.92080E-03
 STRESS PERIOD TIME 2.59200E+06  43200.      720.00      30.000     8.21355E-02
         TOTAL TIME 1.03680E+08 1.72800E+06  28800.      1200.0      3.2854    
1
1
                            STRESS PERIOD NO.   41, LENGTH =   2592000.    
                            -----------------------------------------------

                              NUMBER OF TIME STEPS =    30

                               MULTIPLIER FOR DELT =     1.100

                            INITIAL TIME STEP SIZE =   15757.40    

 REUSING NON-PARAMETER GHB CELLS FROM LAST STRESS PERIOD

      7 GHB CELLS



 CLASSIFICATION & COUNT OF STREAM SEGMENTS BASED ON SOURCE OF INFLOW:

                HEADWATER     DIVERSION     RECEIVES TRIBUTARY FLOW
                ---------     ---------     -----------------------
                     1              0               0



                    INPUT DATA FOR EACH STREAM SEGMENT
 ---------------------------------------------------------------------------------------------

 SEGMENT    SEG.     INFLOW   OVERLAND   STREAM    STREAM   ICALC  OUTFLOW  DIVERSION PRIORITY
    NO.    LENGTH     RATE     RUNOFF      ET       PPT.    METH.  TO SEG.  FROM SEG.    NO.

      1  2.000E+04 1.970E+01 0.000E+00 0.000E+00 0.000E+00    2        0        0        0


         STREAMBED PROPERTIES AND STREAM DIMENSIONS

 SEGMENT     BED HYD. COND.      BED THICKNESS     ELEV.-TOP OF BED     WIDTH OF STREAM     DEPTH OF STREAM    STREAM ROUGHNESS
    No.     UPPER     LOWER     UPPER     LOWER     UPPER     LOWER     UPPER     LOWER     UPPER     LOWER   CHANNEL      BANK

     1  3.500E-07 3.500E-07                                                                                 3.000E-02 4.000E-02

  EIGHT POINT CROSS-SECTION DATA FOR SEGMENTS WITH ICALC = 2
    X VALUES X VALUES START FROM LEFT SIDE LOOKING DOWNSTREAM

     SEGMENT NO.        X1        X2        X3        X4        X5        X6        X7        X8
            1      0.000E+00 2.000E+00 4.000E+00 6.000E+00 8.000E+00 1.000E+01 1.200E+01 1.400E+01

    Z VALUES ARE RELATIVE TO STREAMBED ELEVATION

     SEGMENT NO.          Z1        Z2        Z3        Z4        Z5        Z6        Z7        Z8
            1      6.000E+00 4.500E+00 3.500E+00 0.000E+00 3.000E-01 3.500E+00 4.500E+00 6.000E+00



 
 SOLVING FOR HEAD 

 NO OUTPUT CONTROL FOR STRESS PERIOD   41   TIME STEP   1
 
 SOLVING FOR HEAD 

 NO OUTPUT CONTROL FOR STRESS PERIOD   41   TIME STEP   2
 
 SOLVING FOR HEAD 

 NO OUTPUT CONTROL FOR STRESS PERIOD   41   TIME STEP   3
 
 SOLVING FOR HEAD 

 NO OUTPUT CONTROL FOR STRESS PERIOD   41   TIME STEP   4
 
 SOLVING FOR HEAD 

 NO OUTPUT CONTROL FOR STRESS PERIOD   41   TIME STEP   5
 
 SOLVING FOR HEAD 

 NO OUTPUT CONTROL FOR STRESS PERIOD   41   TIME STEP   6
 
 SOLVING FOR HEAD 

 NO OUTPUT CONTROL FOR STRESS PERIOD   41   TIME STEP   7
 
 SOLVING FOR HEAD 

 NO OUTPUT CONTROL FOR STRESS PERIOD   41   TIME STEP   8
 
 SOLVING FOR HEAD 

 NO OUTPUT CONTROL FOR STRESS PERIOD   41   TIME STEP   9
 
 SOLVING FOR HEAD 

 NO OUTPUT CONTROL FOR STRESS PERIOD   41   TIME STEP  10
 
 SOLVING FOR HEAD 

 NO OUTPUT CONTROL FOR STRESS PERIOD   41   TIME STEP  11
 
 SOLVING FOR HEAD 

 NO OUTPUT CONTROL FOR STRESS PERIOD   41   TIME STEP  12
 
 SOLVING FOR HEAD 

 NO OUTPUT CONTROL FOR STRESS PERIOD   41   TIME STEP  13
 
 SOLVING FOR HEAD 

 NO OUTPUT CONTROL FOR STRESS PERIOD   41   TIME STEP  14
 
 SOLVING FOR HEAD 

 NO OUTPUT CONTROL FOR STRESS PERIOD   41   TIME STEP  15
 
 SOLVING FOR HEAD 

 NO OUTPUT CONTROL FOR STRESS PERIOD   41   TIME STEP  16
 
 SOLVING FOR HEAD 

 NO OUTPUT CONTROL FOR STRESS PERIOD   41   TIME STEP  17
 
 SOLVING FOR HEAD 

 NO OUTPUT CONTROL FOR STRESS PERIOD   41   TIME STEP  18
 
 SOLVING FOR HEAD 

 NO OUTPUT CONTROL FOR STRESS PERIOD   41   TIME STEP  19
 
 SOLVING FOR HEAD 

 NO OUTPUT CONTROL FOR STRESS PERIOD   41   TIME STEP  20
 
 SOLVING FOR HEAD 

 NO OUTPUT CONTROL FOR STRESS PERIOD   41   TIME STEP  21
 
 SOLVING FOR HEAD 

 NO OUTPUT CONTROL FOR STRESS PERIOD   41   TIME STEP  22
 
 SOLVING FOR HEAD 

 NO OUTPUT CONTROL FOR STRESS PERIOD   41   TIME STEP  23
 
 SOLVING FOR HEAD 

 NO OUTPUT CONTROL FOR STRESS PERIOD   41   TIME STEP  24
 
 SOLVING FOR HEAD 

 NO OUTPUT CONTROL FOR STRESS PERIOD   41   TIME STEP  25
 
 SOLVING FOR HEAD 

 NO OUTPUT CONTROL FOR STRESS PERIOD   41   TIME STEP  26
 
 SOLVING FOR HEAD 

 NO OUTPUT CONTROL FOR STRESS PERIOD   41   TIME STEP  27
 
 SOLVING FOR HEAD 

 NO OUTPUT CONTROL FOR STRESS PERIOD   41   TIME STEP  28
 
 SOLVING FOR HEAD 

 NO OUTPUT CONTROL FOR STRESS PERIOD   41   TIME STEP  29
 
 SOLVING FOR HEAD 

 NO OUTPUT CONTROL FOR STRESS PERIOD   41   TIME STEP  30
1
  VOLUMETRIC BUDGET FOR UNSATURATED ZONE BENEATH STREAMS AT END OF TIME STEP  30 STRESS PERIOD  41
  ------------------------------------------------------------------------------------------------

    CUMULATIVE VOLUMES             L**3    RATES FOR THIS TIME STEP         L**3/T
    ------------------                     ------------------------


          STREAM LOSS =     32525422.0000            STREAM LOSS =            0.5109
    CHANGE IN STORAGE =       749086.6875      CHANGE IN STORAGE =        3.0239E-02
       RECHARGE TO GW =     31774984.0000         RECHARGE TO GW =            0.4806

             TOTAL IN =     32525422.0000               TOTAL IN =            0.5109

            TOTAL OUT =     32524070.0000              TOTAL OUT =            0.5109

             IN - OUT =         1352.0000               IN - OUT =        1.1921E-07

  PERCENT DISCREPANCY =            0.00      PERCENT DISCREPANCY =             0.00



1
  VOLUMETRIC BUDGET FOR ENTIRE MODEL AT END OF TIME STEP 30 IN STRESS PERIOD  41
  ------------------------------------------------------------------------------

     CUMULATIVE VOLUMES      L**3       RATES FOR THIS TIME STEP      L**3/T
     ------------------                 ------------------------

           IN:                                      IN:
           ---                                      ---
             STORAGE =    16600222.0000               STORAGE =           0.0000
       CONSTANT HEAD =           0.0000         CONSTANT HEAD =           0.0000
     HEAD DEP BOUNDS =           0.0000       HEAD DEP BOUNDS =           0.0000
      STREAM LEAKAGE =    31774268.0000        STREAM LEAKAGE =           0.4806

            TOTAL IN =    48374488.0000              TOTAL IN =           0.4806

          OUT:                                     OUT:
          ----                                     ----
             STORAGE =    16398658.0000               STORAGE =           0.2748
       CONSTANT HEAD =           0.0000         CONSTANT HEAD =           0.0000
     HEAD DEP BOUNDS =    31974812.0000       HEAD DEP BOUNDS =           0.2057
      STREAM LEAKAGE =           0.0000        STREAM LEAKAGE =           0.0000

           TOTAL OUT =    48373472.0000             TOTAL OUT =           0.4805

            IN - OUT =        1016.0000              IN - OUT =       6.8963E-05

 PERCENT DISCREPANCY =           0.00     PERCENT DISCREPANCY =           0.01






          TIME SUMMARY AT END OF TIME STEP  30 IN STRESS PERIOD   41
                    SECONDS     MINUTES      HOURS       DAYS        YEARS
                    -----------------------------------------------------------
   TIME STEP LENGTH 2.49961E+05  4166.0      69.434      2.8931     7.92080E-03
 STRESS PERIOD TIME 2.59200E+06  43200.      720.00      30.000     8.21355E-02
         TOTAL TIME 1.06272E+08 1.77120E+06  29520.      1230.0      3.3676    
1
1
                            STRESS PERIOD NO.   42, LENGTH =   2592000.    
                            -----------------------------------------------

                              NUMBER OF TIME STEPS =    30

                               MULTIPLIER FOR DELT =     1.100

                            INITIAL TIME STEP SIZE =   15757.40    

 REUSING NON-PARAMETER GHB CELLS FROM LAST STRESS PERIOD

      7 GHB CELLS



 CLASSIFICATION & COUNT OF STREAM SEGMENTS BASED ON SOURCE OF INFLOW:

                HEADWATER     DIVERSION     RECEIVES TRIBUTARY FLOW
                ---------     ---------     -----------------------
                     1              0               0



                    INPUT DATA FOR EACH STREAM SEGMENT
 ---------------------------------------------------------------------------------------------

 SEGMENT    SEG.     INFLOW   OVERLAND   STREAM    STREAM   ICALC  OUTFLOW  DIVERSION PRIORITY
    NO.    LENGTH     RATE     RUNOFF      ET       PPT.    METH.  TO SEG.  FROM SEG.    NO.

      1  2.000E+04 9.110E+00 0.000E+00 0.000E+00 0.000E+00    2        0        0        0


         STREAMBED PROPERTIES AND STREAM DIMENSIONS

 SEGMENT     BED HYD. COND.      BED THICKNESS     ELEV.-TOP OF BED     WIDTH OF STREAM     DEPTH OF STREAM    STREAM ROUGHNESS
    No.     UPPER     LOWER     UPPER     LOWER     UPPER     LOWER     UPPER     LOWER     UPPER     LOWER   CHANNEL      BANK

     1  3.500E-07 3.500E-07                                                                                 3.000E-02 4.000E-02

  EIGHT POINT CROSS-SECTION DATA FOR SEGMENTS WITH ICALC = 2
    X VALUES X VALUES START FROM LEFT SIDE LOOKING DOWNSTREAM

     SEGMENT NO.        X1        X2        X3        X4        X5        X6        X7        X8
            1      0.000E+00 2.000E+00 4.000E+00 6.000E+00 8.000E+00 1.000E+01 1.200E+01 1.400E+01

    Z VALUES ARE RELATIVE TO STREAMBED ELEVATION

     SEGMENT NO.          Z1        Z2        Z3        Z4        Z5        Z6        Z7        Z8
            1      6.000E+00 4.500E+00 3.500E+00 0.000E+00 3.000E-01 3.500E+00 4.500E+00 6.000E+00



 
 SOLVING FOR HEAD 

 NO OUTPUT CONTROL FOR STRESS PERIOD   42   TIME STEP   1
 
 SOLVING FOR HEAD 

 NO OUTPUT CONTROL FOR STRESS PERIOD   42   TIME STEP   2
 
 SOLVING FOR HEAD 

 NO OUTPUT CONTROL FOR STRESS PERIOD   42   TIME STEP   3
 
 SOLVING FOR HEAD 

 NO OUTPUT CONTROL FOR STRESS PERIOD   42   TIME STEP   4
 
 SOLVING FOR HEAD 

 NO OUTPUT CONTROL FOR STRESS PERIOD   42   TIME STEP   5
 
 SOLVING FOR HEAD 

 NO OUTPUT CONTROL FOR STRESS PERIOD   42   TIME STEP   6
 
 SOLVING FOR HEAD 

 NO OUTPUT CONTROL FOR STRESS PERIOD   42   TIME STEP   7
 
 SOLVING FOR HEAD 

 NO OUTPUT CONTROL FOR STRESS PERIOD   42   TIME STEP   8
 
 SOLVING FOR HEAD 

 NO OUTPUT CONTROL FOR STRESS PERIOD   42   TIME STEP   9
 
 SOLVING FOR HEAD 

 NO OUTPUT CONTROL FOR STRESS PERIOD   42   TIME STEP  10
 
 SOLVING FOR HEAD 

 NO OUTPUT CONTROL FOR STRESS PERIOD   42   TIME STEP  11
 
 SOLVING FOR HEAD 

 NO OUTPUT CONTROL FOR STRESS PERIOD   42   TIME STEP  12
 
 SOLVING FOR HEAD 

 NO OUTPUT CONTROL FOR STRESS PERIOD   42   TIME STEP  13
 
 SOLVING FOR HEAD 

 NO OUTPUT CONTROL FOR STRESS PERIOD   42   TIME STEP  14
 
 SOLVING FOR HEAD 

 NO OUTPUT CONTROL FOR STRESS PERIOD   42   TIME STEP  15
 
 SOLVING FOR HEAD 

 NO OUTPUT CONTROL FOR STRESS PERIOD   42   TIME STEP  16
 
 SOLVING FOR HEAD 

 NO OUTPUT CONTROL FOR STRESS PERIOD   42   TIME STEP  17
 
 SOLVING FOR HEAD 

 NO OUTPUT CONTROL FOR STRESS PERIOD   42   TIME STEP  18
 
 SOLVING FOR HEAD 

 NO OUTPUT CONTROL FOR STRESS PERIOD   42   TIME STEP  19
 
 SOLVING FOR HEAD 

 NO OUTPUT CONTROL FOR STRESS PERIOD   42   TIME STEP  20
 
 SOLVING FOR HEAD 

 NO OUTPUT CONTROL FOR STRESS PERIOD   42   TIME STEP  21
 
 SOLVING FOR HEAD 

 NO OUTPUT CONTROL FOR STRESS PERIOD   42   TIME STEP  22
 
 SOLVING FOR HEAD 

 NO OUTPUT CONTROL FOR STRESS PERIOD   42   TIME STEP  23
 
 SOLVING FOR HEAD 

 NO OUTPUT CONTROL FOR STRESS PERIOD   42   TIME STEP  24
 
 SOLVING FOR HEAD 

 NO OUTPUT CONTROL FOR STRESS PERIOD   42   TIME STEP  25
 
 SOLVING FOR HEAD 

 NO OUTPUT CONTROL FOR STRESS PERIOD   42   TIME STEP  26
 
 SOLVING FOR HEAD 

 NO OUTPUT CONTROL FOR STRESS PERIOD   42   TIME STEP  27
 
 SOLVING FOR HEAD 

 NO OUTPUT CONTROL FOR STRESS PERIOD   42   TIME STEP  28
 
 SOLVING FOR HEAD 

 NO OUTPUT CONTROL FOR STRESS PERIOD   42   TIME STEP  29
 
 SOLVING FOR HEAD 

 NO OUTPUT CONTROL FOR STRESS PERIOD   42   TIME STEP  30
1
  VOLUMETRIC BUDGET FOR UNSATURATED ZONE BENEATH STREAMS AT END OF TIME STEP  30 STRESS PERIOD  42
  ------------------------------------------------------------------------------------------------

    CUMULATIVE VOLUMES             L**3    RATES FOR THIS TIME STEP         L**3/T
    ------------------                     ------------------------


          STREAM LOSS =     33228992.0000            STREAM LOSS =            0.2714
    CHANGE IN STORAGE =       570442.4375      CHANGE IN STORAGE =       -1.8078E-02
       RECHARGE TO GW =     32657566.0000         RECHARGE TO GW =            0.2895

             TOTAL IN =     33228992.0000               TOTAL IN =            0.2895

            TOTAL OUT =     33228008.0000              TOTAL OUT =            0.2895

             IN - OUT =          984.0000               IN - OUT =        6.7614E-07

  PERCENT DISCREPANCY =            0.00      PERCENT DISCREPANCY =             0.00



1
  VOLUMETRIC BUDGET FOR ENTIRE MODEL AT END OF TIME STEP 30 IN STRESS PERIOD  42
  ------------------------------------------------------------------------------

     CUMULATIVE VOLUMES      L**3       RATES FOR THIS TIME STEP      L**3/T
     ------------------                 ------------------------

           IN:                                      IN:
           ---                                      ---
             STORAGE =    16600508.0000               STORAGE =       2.7274E-06
       CONSTANT HEAD =           0.0000         CONSTANT HEAD =           0.0000
     HEAD DEP BOUNDS =           0.0000       HEAD DEP BOUNDS =           0.0000
      STREAM LEAKAGE =    32656740.0000        STREAM LEAKAGE =           0.2895

            TOTAL IN =    49257248.0000              TOTAL IN =           0.2895

          OUT:                                     OUT:
          ----                                     ----
             STORAGE =    16745648.0000               STORAGE =       8.2542E-02
       CONSTANT HEAD =           0.0000         CONSTANT HEAD =           0.0000
     HEAD DEP BOUNDS =    32510552.0000       HEAD DEP BOUNDS =           0.2069
      STREAM LEAKAGE =           0.0000        STREAM LEAKAGE =           0.0000

           TOTAL OUT =    49256200.0000             TOTAL OUT =           0.2894

            IN - OUT =        1048.0000              IN - OUT =       8.2850E-05

 PERCENT DISCREPANCY =           0.00     PERCENT DISCREPANCY =           0.03






          TIME SUMMARY AT END OF TIME STEP  30 IN STRESS PERIOD   42
                    SECONDS     MINUTES      HOURS       DAYS        YEARS
                    -----------------------------------------------------------
   TIME STEP LENGTH 2.49961E+05  4166.0      69.434      2.8931     7.92080E-03
 STRESS PERIOD TIME 2.59200E+06  43200.      720.00      30.000     8.21355E-02
         TOTAL TIME 1.08864E+08 1.81440E+06  30240.      1260.0      3.4497    
1
1
                            STRESS PERIOD NO.   43, LENGTH =   2592000.    
                            -----------------------------------------------

                              NUMBER OF TIME STEPS =    30

                               MULTIPLIER FOR DELT =     1.100

                            INITIAL TIME STEP SIZE =   15757.40    

 REUSING NON-PARAMETER GHB CELLS FROM LAST STRESS PERIOD

      7 GHB CELLS



 CLASSIFICATION & COUNT OF STREAM SEGMENTS BASED ON SOURCE OF INFLOW:

                HEADWATER     DIVERSION     RECEIVES TRIBUTARY FLOW
                ---------     ---------     -----------------------
                     1              0               0



                    INPUT DATA FOR EACH STREAM SEGMENT
 ---------------------------------------------------------------------------------------------

 SEGMENT    SEG.     INFLOW   OVERLAND   STREAM    STREAM   ICALC  OUTFLOW  DIVERSION PRIORITY
    NO.    LENGTH     RATE     RUNOFF      ET       PPT.    METH.  TO SEG.  FROM SEG.    NO.

      1  2.000E+04 9.980E+00 0.000E+00 0.000E+00 0.000E+00    2        0        0        0


         STREAMBED PROPERTIES AND STREAM DIMENSIONS

 SEGMENT     BED HYD. COND.      BED THICKNESS     ELEV.-TOP OF BED     WIDTH OF STREAM     DEPTH OF STREAM    STREAM ROUGHNESS
    No.     UPPER     LOWER     UPPER     LOWER     UPPER     LOWER     UPPER     LOWER     UPPER     LOWER   CHANNEL      BANK

     1  3.500E-07 3.500E-07                                                                                 3.000E-02 4.000E-02

  EIGHT POINT CROSS-SECTION DATA FOR SEGMENTS WITH ICALC = 2
    X VALUES X VALUES START FROM LEFT SIDE LOOKING DOWNSTREAM

     SEGMENT NO.        X1        X2        X3        X4        X5        X6        X7        X8
            1      0.000E+00 2.000E+00 4.000E+00 6.000E+00 8.000E+00 1.000E+01 1.200E+01 1.400E+01

    Z VALUES ARE RELATIVE TO STREAMBED ELEVATION

     SEGMENT NO.          Z1        Z2        Z3        Z4        Z5        Z6        Z7        Z8
            1      6.000E+00 4.500E+00 3.500E+00 0.000E+00 3.000E-01 3.500E+00 4.500E+00 6.000E+00



 
 SOLVING FOR HEAD 

 NO OUTPUT CONTROL FOR STRESS PERIOD   43   TIME STEP   1
 
 SOLVING FOR HEAD 

 NO OUTPUT CONTROL FOR STRESS PERIOD   43   TIME STEP   2
 
 SOLVING FOR HEAD 

 NO OUTPUT CONTROL FOR STRESS PERIOD   43   TIME STEP   3
 
 SOLVING FOR HEAD 

 NO OUTPUT CONTROL FOR STRESS PERIOD   43   TIME STEP   4
 
 SOLVING FOR HEAD 

 NO OUTPUT CONTROL FOR STRESS PERIOD   43   TIME STEP   5
 
 SOLVING FOR HEAD 

 NO OUTPUT CONTROL FOR STRESS PERIOD   43   TIME STEP   6
 
 SOLVING FOR HEAD 

 NO OUTPUT CONTROL FOR STRESS PERIOD   43   TIME STEP   7
 
 SOLVING FOR HEAD 

 NO OUTPUT CONTROL FOR STRESS PERIOD   43   TIME STEP   8
 
 SOLVING FOR HEAD 

 NO OUTPUT CONTROL FOR STRESS PERIOD   43   TIME STEP   9
 
 SOLVING FOR HEAD 

 NO OUTPUT CONTROL FOR STRESS PERIOD   43   TIME STEP  10
 
 SOLVING FOR HEAD 

 NO OUTPUT CONTROL FOR STRESS PERIOD   43   TIME STEP  11
 
 SOLVING FOR HEAD 

 NO OUTPUT CONTROL FOR STRESS PERIOD   43   TIME STEP  12
 
 SOLVING FOR HEAD 

 NO OUTPUT CONTROL FOR STRESS PERIOD   43   TIME STEP  13
 
 SOLVING FOR HEAD 

 NO OUTPUT CONTROL FOR STRESS PERIOD   43   TIME STEP  14
 
 SOLVING FOR HEAD 

 NO OUTPUT CONTROL FOR STRESS PERIOD   43   TIME STEP  15
 
 SOLVING FOR HEAD 

 NO OUTPUT CONTROL FOR STRESS PERIOD   43   TIME STEP  16
 
 SOLVING FOR HEAD 

 NO OUTPUT CONTROL FOR STRESS PERIOD   43   TIME STEP  17
 
 SOLVING FOR HEAD 

 NO OUTPUT CONTROL FOR STRESS PERIOD   43   TIME STEP  18
 
 SOLVING FOR HEAD 

 NO OUTPUT CONTROL FOR STRESS PERIOD   43   TIME STEP  19
 
 SOLVING FOR HEAD 

 NO OUTPUT CONTROL FOR STRESS PERIOD   43   TIME STEP  20
 
 SOLVING FOR HEAD 

 NO OUTPUT CONTROL FOR STRESS PERIOD   43   TIME STEP  21
 
 SOLVING FOR HEAD 

 NO OUTPUT CONTROL FOR STRESS PERIOD   43   TIME STEP  22
 
 SOLVING FOR HEAD 

 NO OUTPUT CONTROL FOR STRESS PERIOD   43   TIME STEP  23
 
 SOLVING FOR HEAD 

 NO OUTPUT CONTROL FOR STRESS PERIOD   43   TIME STEP  24
 
 SOLVING FOR HEAD 

 NO OUTPUT CONTROL FOR STRESS PERIOD   43   TIME STEP  25
 
 SOLVING FOR HEAD 

 NO OUTPUT CONTROL FOR STRESS PERIOD   43   TIME STEP  26
 
 SOLVING FOR HEAD 

 NO OUTPUT CONTROL FOR STRESS PERIOD   43   TIME STEP  27
 
 SOLVING FOR HEAD 

 NO OUTPUT CONTROL FOR STRESS PERIOD   43   TIME STEP  28
 
 SOLVING FOR HEAD 

 NO OUTPUT CONTROL FOR STRESS PERIOD   43   TIME STEP  29
 
 SOLVING FOR HEAD 

 NO OUTPUT CONTROL FOR STRESS PERIOD   43   TIME STEP  30
1
  VOLUMETRIC BUDGET FOR UNSATURATED ZONE BENEATH STREAMS AT END OF TIME STEP  30 STRESS PERIOD  43
  ------------------------------------------------------------------------------------------------

    CUMULATIVE VOLUMES             L**3    RATES FOR THIS TIME STEP         L**3/T
    ------------------                     ------------------------


          STREAM LOSS =     33986400.0000            STREAM LOSS =            0.2922
    CHANGE IN STORAGE =       555276.5000      CHANGE IN STORAGE =       -8.1382E-03
       RECHARGE TO GW =     33430110.0000         RECHARGE TO GW =            0.3003

             TOTAL IN =     33986400.0000               TOTAL IN =            0.3003

            TOTAL OUT =     33985388.0000              TOTAL OUT =            0.3003

             IN - OUT =         1012.0000               IN - OUT =       -3.1665E-08

  PERCENT DISCREPANCY =            0.00      PERCENT DISCREPANCY =             0.00



1
  VOLUMETRIC BUDGET FOR ENTIRE MODEL AT END OF TIME STEP 30 IN STRESS PERIOD  43
  ------------------------------------------------------------------------------

     CUMULATIVE VOLUMES      L**3       RATES FOR THIS TIME STEP      L**3/T
     ------------------                 ------------------------

           IN:                                      IN:
           ---                                      ---
             STORAGE =    16600508.0000               STORAGE =       3.5430E-08
       CONSTANT HEAD =           0.0000         CONSTANT HEAD =           0.0000
     HEAD DEP BOUNDS =           0.0000       HEAD DEP BOUNDS =           0.0000
      STREAM LEAKAGE =    33429320.0000        STREAM LEAKAGE =           0.3003

            TOTAL IN =    50029828.0000              TOTAL IN =           0.3003

          OUT:                                     OUT:
          ----                                     ----
             STORAGE =    16979672.0000               STORAGE =       9.1754E-02
       CONSTANT HEAD =           0.0000         CONSTANT HEAD =           0.0000
     HEAD DEP BOUNDS =    33049012.0000       HEAD DEP BOUNDS =           0.2085
      STREAM LEAKAGE =           0.0000        STREAM LEAKAGE =           0.0000

           TOTAL OUT =    50028684.0000             TOTAL OUT =           0.3002

            IN - OUT =        1144.0000              IN - OUT =       1.1122E-04

 PERCENT DISCREPANCY =           0.00     PERCENT DISCREPANCY =           0.04






          TIME SUMMARY AT END OF TIME STEP  30 IN STRESS PERIOD   43
                    SECONDS     MINUTES      HOURS       DAYS        YEARS
                    -----------------------------------------------------------
   TIME STEP LENGTH 2.49961E+05  4166.0      69.434      2.8931     7.92080E-03
 STRESS PERIOD TIME 2.59200E+06  43200.      720.00      30.000     8.21355E-02
         TOTAL TIME 1.11456E+08 1.85760E+06  30960.      1290.0      3.5318    
1
1
                            STRESS PERIOD NO.   44, LENGTH =   2592000.    
                            -----------------------------------------------

                              NUMBER OF TIME STEPS =    30

                               MULTIPLIER FOR DELT =     1.100

                            INITIAL TIME STEP SIZE =   15757.40    

 REUSING NON-PARAMETER GHB CELLS FROM LAST STRESS PERIOD

      7 GHB CELLS



 CLASSIFICATION & COUNT OF STREAM SEGMENTS BASED ON SOURCE OF INFLOW:

                HEADWATER     DIVERSION     RECEIVES TRIBUTARY FLOW
                ---------     ---------     -----------------------
                     1              0               0



                    INPUT DATA FOR EACH STREAM SEGMENT
 ---------------------------------------------------------------------------------------------

 SEGMENT    SEG.     INFLOW   OVERLAND   STREAM    STREAM   ICALC  OUTFLOW  DIVERSION PRIORITY
    NO.    LENGTH     RATE     RUNOFF      ET       PPT.    METH.  TO SEG.  FROM SEG.    NO.

      1  2.000E+04 6.510E+00 0.000E+00 0.000E+00 0.000E+00    2        0        0        0


         STREAMBED PROPERTIES AND STREAM DIMENSIONS

 SEGMENT     BED HYD. COND.      BED THICKNESS     ELEV.-TOP OF BED     WIDTH OF STREAM     DEPTH OF STREAM    STREAM ROUGHNESS
    No.     UPPER     LOWER     UPPER     LOWER     UPPER     LOWER     UPPER     LOWER     UPPER     LOWER   CHANNEL      BANK

     1  3.500E-07 3.500E-07                                                                                 3.000E-02 4.000E-02

  EIGHT POINT CROSS-SECTION DATA FOR SEGMENTS WITH ICALC = 2
    X VALUES X VALUES START FROM LEFT SIDE LOOKING DOWNSTREAM

     SEGMENT NO.        X1        X2        X3        X4        X5        X6        X7        X8
            1      0.000E+00 2.000E+00 4.000E+00 6.000E+00 8.000E+00 1.000E+01 1.200E+01 1.400E+01

    Z VALUES ARE RELATIVE TO STREAMBED ELEVATION

     SEGMENT NO.          Z1        Z2        Z3        Z4        Z5        Z6        Z7        Z8
            1      6.000E+00 4.500E+00 3.500E+00 0.000E+00 3.000E-01 3.500E+00 4.500E+00 6.000E+00



 
 SOLVING FOR HEAD 

 NO OUTPUT CONTROL FOR STRESS PERIOD   44   TIME STEP   1
 
 SOLVING FOR HEAD 

 NO OUTPUT CONTROL FOR STRESS PERIOD   44   TIME STEP   2
 
 SOLVING FOR HEAD 

 NO OUTPUT CONTROL FOR STRESS PERIOD   44   TIME STEP   3
 
 SOLVING FOR HEAD 

 NO OUTPUT CONTROL FOR STRESS PERIOD   44   TIME STEP   4
 
 SOLVING FOR HEAD 

 NO OUTPUT CONTROL FOR STRESS PERIOD   44   TIME STEP   5
 
 SOLVING FOR HEAD 

 NO OUTPUT CONTROL FOR STRESS PERIOD   44   TIME STEP   6
 
 SOLVING FOR HEAD 

 NO OUTPUT CONTROL FOR STRESS PERIOD   44   TIME STEP   7
 
 SOLVING FOR HEAD 

 NO OUTPUT CONTROL FOR STRESS PERIOD   44   TIME STEP   8
 
 SOLVING FOR HEAD 

 NO OUTPUT CONTROL FOR STRESS PERIOD   44   TIME STEP   9
 
 SOLVING FOR HEAD 

 NO OUTPUT CONTROL FOR STRESS PERIOD   44   TIME STEP  10
 
 SOLVING FOR HEAD 

 NO OUTPUT CONTROL FOR STRESS PERIOD   44   TIME STEP  11
 
 SOLVING FOR HEAD 

 NO OUTPUT CONTROL FOR STRESS PERIOD   44   TIME STEP  12
 
 SOLVING FOR HEAD 

 NO OUTPUT CONTROL FOR STRESS PERIOD   44   TIME STEP  13
 
 SOLVING FOR HEAD 

 NO OUTPUT CONTROL FOR STRESS PERIOD   44   TIME STEP  14
 
 SOLVING FOR HEAD 

 NO OUTPUT CONTROL FOR STRESS PERIOD   44   TIME STEP  15
 
 SOLVING FOR HEAD 

 NO OUTPUT CONTROL FOR STRESS PERIOD   44   TIME STEP  16
 
 SOLVING FOR HEAD 

 NO OUTPUT CONTROL FOR STRESS PERIOD   44   TIME STEP  17
 
 SOLVING FOR HEAD 

 NO OUTPUT CONTROL FOR STRESS PERIOD   44   TIME STEP  18
 
 SOLVING FOR HEAD 

 NO OUTPUT CONTROL FOR STRESS PERIOD   44   TIME STEP  19
 
 SOLVING FOR HEAD 

 NO OUTPUT CONTROL FOR STRESS PERIOD   44   TIME STEP  20
 
 SOLVING FOR HEAD 

 NO OUTPUT CONTROL FOR STRESS PERIOD   44   TIME STEP  21
 
 SOLVING FOR HEAD 

 NO OUTPUT CONTROL FOR STRESS PERIOD   44   TIME STEP  22
 
 SOLVING FOR HEAD 

 NO OUTPUT CONTROL FOR STRESS PERIOD   44   TIME STEP  23
 
 SOLVING FOR HEAD 

 NO OUTPUT CONTROL FOR STRESS PERIOD   44   TIME STEP  24
 
 SOLVING FOR HEAD 

 NO OUTPUT CONTROL FOR STRESS PERIOD   44   TIME STEP  25
 
 SOLVING FOR HEAD 

 NO OUTPUT CONTROL FOR STRESS PERIOD   44   TIME STEP  26
 
 SOLVING FOR HEAD 

 NO OUTPUT CONTROL FOR STRESS PERIOD   44   TIME STEP  27
 
 SOLVING FOR HEAD 

 NO OUTPUT CONTROL FOR STRESS PERIOD   44   TIME STEP  28
 
 SOLVING FOR HEAD 

 NO OUTPUT CONTROL FOR STRESS PERIOD   44   TIME STEP  29
 
 SOLVING FOR HEAD 

 NO OUTPUT CONTROL FOR STRESS PERIOD   44   TIME STEP  30
1
  VOLUMETRIC BUDGET FOR UNSATURATED ZONE BENEATH STREAMS AT END OF TIME STEP  30 STRESS PERIOD  44
  ------------------------------------------------------------------------------------------------

    CUMULATIVE VOLUMES             L**3    RATES FOR THIS TIME STEP         L**3/T
    ------------------                     ------------------------


          STREAM LOSS =     34524552.0000            STREAM LOSS =            0.2077
    CHANGE IN STORAGE =       475844.1875      CHANGE IN STORAGE =       -4.7770E-03
       RECHARGE TO GW =     34047840.0000         RECHARGE TO GW =            0.2125

             TOTAL IN =     34524552.0000               TOTAL IN =            0.2125

            TOTAL OUT =     34523684.0000              TOTAL OUT =            0.2125

             IN - OUT =          868.0000               IN - OUT =       -2.3283E-09

  PERCENT DISCREPANCY =            0.00      PERCENT DISCREPANCY =             0.00



1
  VOLUMETRIC BUDGET FOR ENTIRE MODEL AT END OF TIME STEP 30 IN STRESS PERIOD  44
  ------------------------------------------------------------------------------

     CUMULATIVE VOLUMES      L**3       RATES FOR THIS TIME STEP      L**3/T
     ------------------                 ------------------------

           IN:                                      IN:
           ---                                      ---
             STORAGE =    16614647.0000               STORAGE =       1.1348E-02
       CONSTANT HEAD =           0.0000         CONSTANT HEAD =           0.0000
     HEAD DEP BOUNDS =           0.0000       HEAD DEP BOUNDS =           0.0000
      STREAM LEAKAGE =    34047180.0000        STREAM LEAKAGE =           0.2125

            TOTAL IN =    50661828.0000              TOTAL IN =           0.2238

          OUT:                                     OUT:
          ----                                     ----
             STORAGE =    17073416.0000               STORAGE =       1.7504E-02
       CONSTANT HEAD =           0.0000         CONSTANT HEAD =           0.0000
     HEAD DEP BOUNDS =    33587200.0000       HEAD DEP BOUNDS =           0.2063
      STREAM LEAKAGE =           0.0000        STREAM LEAKAGE =           0.0000

           TOTAL OUT =    50660616.0000             TOTAL OUT =           0.2238

            IN - OUT =        1212.0000              IN - OUT =       8.7187E-05

 PERCENT DISCREPANCY =           0.00     PERCENT DISCREPANCY =           0.04






          TIME SUMMARY AT END OF TIME STEP  30 IN STRESS PERIOD   44
                    SECONDS     MINUTES      HOURS       DAYS        YEARS
                    -----------------------------------------------------------
   TIME STEP LENGTH 2.49961E+05  4166.0      69.434      2.8931     7.92080E-03
 STRESS PERIOD TIME 2.59200E+06  43200.      720.00      30.000     8.21355E-02
         TOTAL TIME 1.14048E+08 1.90080E+06  31680.      1320.0      3.6140    
1
1
                            STRESS PERIOD NO.   45, LENGTH =   2592000.    
                            -----------------------------------------------

                              NUMBER OF TIME STEPS =    30

                               MULTIPLIER FOR DELT =     1.100

                            INITIAL TIME STEP SIZE =   15757.40    

 REUSING NON-PARAMETER GHB CELLS FROM LAST STRESS PERIOD

      7 GHB CELLS



 CLASSIFICATION & COUNT OF STREAM SEGMENTS BASED ON SOURCE OF INFLOW:

                HEADWATER     DIVERSION     RECEIVES TRIBUTARY FLOW
                ---------     ---------     -----------------------
                     1              0               0



                    INPUT DATA FOR EACH STREAM SEGMENT
 ---------------------------------------------------------------------------------------------

 SEGMENT    SEG.     INFLOW   OVERLAND   STREAM    STREAM   ICALC  OUTFLOW  DIVERSION PRIORITY
    NO.    LENGTH     RATE     RUNOFF      ET       PPT.    METH.  TO SEG.  FROM SEG.    NO.

      1  2.000E+04 3.430E+00 0.000E+00 0.000E+00 0.000E+00    2        0        0        0


         STREAMBED PROPERTIES AND STREAM DIMENSIONS

 SEGMENT     BED HYD. COND.      BED THICKNESS     ELEV.-TOP OF BED     WIDTH OF STREAM     DEPTH OF STREAM    STREAM ROUGHNESS
    No.     UPPER     LOWER     UPPER     LOWER     UPPER     LOWER     UPPER     LOWER     UPPER     LOWER   CHANNEL      BANK

     1  3.500E-07 3.500E-07                                                                                 3.000E-02 4.000E-02

  EIGHT POINT CROSS-SECTION DATA FOR SEGMENTS WITH ICALC = 2
    X VALUES X VALUES START FROM LEFT SIDE LOOKING DOWNSTREAM

     SEGMENT NO.        X1        X2        X3        X4        X5        X6        X7        X8
            1      0.000E+00 2.000E+00 4.000E+00 6.000E+00 8.000E+00 1.000E+01 1.200E+01 1.400E+01

    Z VALUES ARE RELATIVE TO STREAMBED ELEVATION

     SEGMENT NO.          Z1        Z2        Z3        Z4        Z5        Z6        Z7        Z8
            1      6.000E+00 4.500E+00 3.500E+00 0.000E+00 3.000E-01 3.500E+00 4.500E+00 6.000E+00



 
 SOLVING FOR HEAD 

 NO OUTPUT CONTROL FOR STRESS PERIOD   45   TIME STEP   1
 
 SOLVING FOR HEAD 

 NO OUTPUT CONTROL FOR STRESS PERIOD   45   TIME STEP   2
 
 SOLVING FOR HEAD 

 NO OUTPUT CONTROL FOR STRESS PERIOD   45   TIME STEP   3
 
 SOLVING FOR HEAD 

 NO OUTPUT CONTROL FOR STRESS PERIOD   45   TIME STEP   4
 
 SOLVING FOR HEAD 

 NO OUTPUT CONTROL FOR STRESS PERIOD   45   TIME STEP   5
 
 SOLVING FOR HEAD 

 NO OUTPUT CONTROL FOR STRESS PERIOD   45   TIME STEP   6
 
 SOLVING FOR HEAD 

 NO OUTPUT CONTROL FOR STRESS PERIOD   45   TIME STEP   7
 
 SOLVING FOR HEAD 

 NO OUTPUT CONTROL FOR STRESS PERIOD   45   TIME STEP   8
 
 SOLVING FOR HEAD 

 NO OUTPUT CONTROL FOR STRESS PERIOD   45   TIME STEP   9
 
 SOLVING FOR HEAD 

 NO OUTPUT CONTROL FOR STRESS PERIOD   45   TIME STEP  10
 
 SOLVING FOR HEAD 

 NO OUTPUT CONTROL FOR STRESS PERIOD   45   TIME STEP  11
 
 SOLVING FOR HEAD 

 NO OUTPUT CONTROL FOR STRESS PERIOD   45   TIME STEP  12
 
 SOLVING FOR HEAD 

 NO OUTPUT CONTROL FOR STRESS PERIOD   45   TIME STEP  13
 
 SOLVING FOR HEAD 

 NO OUTPUT CONTROL FOR STRESS PERIOD   45   TIME STEP  14
 
 SOLVING FOR HEAD 

 NO OUTPUT CONTROL FOR STRESS PERIOD   45   TIME STEP  15
 
 SOLVING FOR HEAD 

 NO OUTPUT CONTROL FOR STRESS PERIOD   45   TIME STEP  16
 
 SOLVING FOR HEAD 

 NO OUTPUT CONTROL FOR STRESS PERIOD   45   TIME STEP  17
 
 SOLVING FOR HEAD 

 NO OUTPUT CONTROL FOR STRESS PERIOD   45   TIME STEP  18
 
 SOLVING FOR HEAD 

 NO OUTPUT CONTROL FOR STRESS PERIOD   45   TIME STEP  19
 
 SOLVING FOR HEAD 

 NO OUTPUT CONTROL FOR STRESS PERIOD   45   TIME STEP  20
 
 SOLVING FOR HEAD 

 NO OUTPUT CONTROL FOR STRESS PERIOD   45   TIME STEP  21
 
 SOLVING FOR HEAD 

 NO OUTPUT CONTROL FOR STRESS PERIOD   45   TIME STEP  22
 
 SOLVING FOR HEAD 

 NO OUTPUT CONTROL FOR STRESS PERIOD   45   TIME STEP  23
 
 SOLVING FOR HEAD 

 NO OUTPUT CONTROL FOR STRESS PERIOD   45   TIME STEP  24
 
 SOLVING FOR HEAD 

 NO OUTPUT CONTROL FOR STRESS PERIOD   45   TIME STEP  25
 
 SOLVING FOR HEAD 

 NO OUTPUT CONTROL FOR STRESS PERIOD   45   TIME STEP  26
 
 SOLVING FOR HEAD 

 NO OUTPUT CONTROL FOR STRESS PERIOD   45   TIME STEP  27
 
 SOLVING FOR HEAD 

 NO OUTPUT CONTROL FOR STRESS PERIOD   45   TIME STEP  28
 
 SOLVING FOR HEAD 

 NO OUTPUT CONTROL FOR STRESS PERIOD   45   TIME STEP  29
 
 SOLVING FOR HEAD 

 OUTPUT CONTROL FOR STRESS PERIOD   45   TIME STEP  30
    PRINT HEAD FOR ALL LAYERS
    PRINT BUDGET
    SAVE BUDGET

  HEAD DEP BOUNDS   PERIOD   45   STEP  30
 BOUNDARY      1   LAYER   1   ROW     1   COL   100   RATE   -2.991583E-02
 BOUNDARY      2   LAYER   1   ROW     2   COL   100   RATE   -2.993830E-02
 BOUNDARY      3   LAYER   1   ROW     3   COL   100   RATE   -2.972358E-02
 BOUNDARY      4   LAYER   1   ROW     4   COL   100   RATE   -2.207684E-02
 BOUNDARY      5   LAYER   1   ROW     5   COL   100   RATE   -2.972358E-02
 BOUNDARY      6   LAYER   1   ROW     6   COL   100   RATE   -2.993830E-02
 BOUNDARY      7   LAYER   1   ROW     7   COL   100   RATE   -2.991583E-02



 STREAM LISTING     PERIOD     45   STEP       30

 LAYER ROW COL. STREAM  RCH.   FLOW INTO    STREAM     FLOW OUT OF   OVRLND.    DIRECT     STREAM      STREAM      STREAM     STREAM  STREAMBED   FLOW TO   CHNG. UNSAT. 
                SEG.NO.  NO.   STRM. RCH.    LOSS       STRM. RCH.   RUNOFF     PRECIP       ET         HEAD        DEPTH      WIDTH  CONDCTNC.   WAT. TAB.   STORAGE

   1    4    1     1     1    3.4300E+00  1.2954E-03   3.4287E+00  0.000E+00  0.000E+00  0.000E+00  1.41237E+02  1.387E+00  3.472E+00  6.864E-04  1.385E-03 -8.972E-05
   1    4    2     1     2    3.4287E+00  1.2951E-03   3.4274E+00  0.000E+00  0.000E+00  0.000E+00  1.40937E+02  1.387E+00  3.472E+00  6.863E-04  1.385E-03 -8.942E-05
   1    4    3     1     3    3.4274E+00  1.2947E-03   3.4261E+00  0.000E+00  0.000E+00  0.000E+00  1.40637E+02  1.387E+00  3.472E+00  6.862E-04  1.384E-03 -8.911E-05
   1    4    4     1     4    3.4261E+00  1.2944E-03   3.4248E+00  0.000E+00  0.000E+00  0.000E+00  1.40337E+02  1.387E+00  3.471E+00  6.861E-04  1.383E-03 -8.879E-05
   1    4    5     1     5    3.4248E+00  1.2940E-03   3.4235E+00  0.000E+00  0.000E+00  0.000E+00  1.40036E+02  1.386E+00  3.471E+00  6.860E-04  1.383E-03 -8.846E-05
   1    4    6     1     6    3.4235E+00  1.2937E-03   3.4222E+00  0.000E+00  0.000E+00  0.000E+00  1.39736E+02  1.386E+00  3.471E+00  6.859E-04  1.382E-03 -8.813E-05
   1    4    7     1     7    3.4222E+00  1.2933E-03   3.4209E+00  0.000E+00  0.000E+00  0.000E+00  1.39436E+02  1.386E+00  3.470E+00  6.858E-04  1.381E-03 -8.780E-05
   1    4    8     1     8    3.4209E+00  1.2930E-03   3.4196E+00  0.000E+00  0.000E+00  0.000E+00  1.39135E+02  1.385E+00  3.470E+00  6.857E-04  1.381E-03 -8.745E-05
   1    4    9     1     9    3.4196E+00  1.2926E-03   3.4184E+00  0.000E+00  0.000E+00  0.000E+00  1.38835E+02  1.385E+00  3.470E+00  6.857E-04  1.380E-03 -8.710E-05
   1    4   10     1    10    3.4184E+00  1.2923E-03   3.4171E+00  0.000E+00  0.000E+00  0.000E+00  1.38535E+02  1.385E+00  3.469E+00  6.856E-04  1.379E-03 -8.674E-05
   1    4   11     1    11    3.4171E+00  1.2919E-03   3.4158E+00  0.000E+00  0.000E+00  0.000E+00  1.38235E+02  1.385E+00  3.469E+00  6.855E-04  1.379E-03 -8.637E-05
   1    4   12     1    12    3.4158E+00  1.2915E-03   3.4145E+00  0.000E+00  0.000E+00  0.000E+00  1.37934E+02  1.384E+00  3.469E+00  6.854E-04  1.378E-03 -8.599E-05
   1    4   13     1    13    3.4145E+00  1.2912E-03   3.4132E+00  0.000E+00  0.000E+00  0.000E+00  1.37634E+02  1.384E+00  3.469E+00  6.853E-04  1.377E-03 -8.560E-05
   1    4   14     1    14    3.4132E+00  1.2908E-03   3.4119E+00  0.000E+00  0.000E+00  0.000E+00  1.37334E+02  1.384E+00  3.468E+00  6.852E-04  1.376E-03 -8.520E-05
   1    4   15     1    15    3.4119E+00  1.2905E-03   3.4106E+00  0.000E+00  0.000E+00  0.000E+00  1.37034E+02  1.384E+00  3.468E+00  6.851E-04  1.376E-03 -8.480E-05
   1    4   16     1    16    3.4106E+00  1.2901E-03   3.4093E+00  0.000E+00  0.000E+00  0.000E+00  1.36733E+02  1.383E+00  3.468E+00  6.850E-04  1.375E-03 -8.440E-05
   1    4   17     1    17    3.4093E+00  1.2898E-03   3.4080E+00  0.000E+00  0.000E+00  0.000E+00  1.36433E+02  1.383E+00  3.467E+00  6.849E-04  1.374E-03 -8.400E-05
   1    4   18     1    18    3.4080E+00  1.2894E-03   3.4067E+00  0.000E+00  0.000E+00  0.000E+00  1.36133E+02  1.383E+00  3.467E+00  6.849E-04  1.373E-03 -8.359E-05
   1    4   19     1    19    3.4067E+00  1.2891E-03   3.4054E+00  0.000E+00  0.000E+00  0.000E+00  1.35832E+02  1.382E+00  3.467E+00  6.848E-04  1.372E-03 -8.317E-05
   1    4   20     1    20    3.4054E+00  1.2887E-03   3.4042E+00  0.000E+00  0.000E+00  0.000E+00  1.35532E+02  1.382E+00  3.466E+00  6.847E-04  1.372E-03 -8.275E-05
   1    4   21     1    21    3.4042E+00  1.2884E-03   3.4029E+00  0.000E+00  0.000E+00  0.000E+00  1.35232E+02  1.382E+00  3.466E+00  6.846E-04  1.371E-03 -8.232E-05
   1    4   22     1    22    3.4029E+00  1.2880E-03   3.4016E+00  0.000E+00  0.000E+00  0.000E+00  1.34932E+02  1.382E+00  3.466E+00  6.845E-04  1.370E-03 -8.189E-05
   1    4   23     1    23    3.4016E+00  1.2877E-03   3.4003E+00  0.000E+00  0.000E+00  0.000E+00  1.34631E+02  1.381E+00  3.465E+00  6.844E-04  1.369E-03 -8.105E-05
   1    4   24     1    24    3.4003E+00  1.2873E-03   3.3990E+00  0.000E+00  0.000E+00  0.000E+00  1.34331E+02  1.381E+00  3.465E+00  6.843E-04  1.368E-03 -8.014E-05
   1    4   25     1    25    3.3990E+00  1.2870E-03   3.3977E+00  0.000E+00  0.000E+00  0.000E+00  1.34031E+02  1.381E+00  3.465E+00  6.842E-04  1.366E-03 -7.924E-05
   1    4   26     1    26    3.3977E+00  1.2866E-03   3.3964E+00  0.000E+00  0.000E+00  0.000E+00  1.33731E+02  1.381E+00  3.464E+00  6.841E-04  1.365E-03 -7.838E-05
   1    4   27     1    27    3.3964E+00  1.2863E-03   3.3951E+00  0.000E+00  0.000E+00  0.000E+00  1.33430E+02  1.380E+00  3.464E+00  6.841E-04  1.364E-03 -7.753E-05
   1    4   28     1    28    3.3951E+00  1.2859E-03   3.3939E+00  0.000E+00  0.000E+00  0.000E+00  1.33130E+02  1.380E+00  3.464E+00  6.840E-04  1.363E-03 -7.672E-05
   1    4   29     1    29    3.3939E+00  1.2855E-03   3.3926E+00  0.000E+00  0.000E+00  0.000E+00  1.32830E+02  1.380E+00  3.463E+00  6.839E-04  1.362E-03 -7.593E-05
   1    4   30     1    30    3.3926E+00  1.2852E-03   3.3913E+00  0.000E+00  0.000E+00  0.000E+00  1.32530E+02  1.380E+00  3.463E+00  6.838E-04  1.360E-03 -7.517E-05
   1    4   31     1    31    3.3913E+00  1.2848E-03   3.3900E+00  0.000E+00  0.000E+00  0.000E+00  1.32229E+02  1.379E+00  3.463E+00  6.837E-04  1.359E-03 -7.444E-05
   1    4   32     1    32    3.3900E+00  1.2845E-03   3.3887E+00  0.000E+00  0.000E+00  0.000E+00  1.31929E+02  1.379E+00  3.462E+00  6.836E-04  1.358E-03 -7.373E-05
   1    4   33     1    33    3.3887E+00  1.2841E-03   3.3874E+00  0.000E+00  0.000E+00  0.000E+00  1.31629E+02  1.379E+00  3.462E+00  6.835E-04  1.357E-03 -7.306E-05
   1    4   34     1    34    3.3874E+00  1.2838E-03   3.3862E+00  0.000E+00  0.000E+00  0.000E+00  1.31328E+02  1.378E+00  3.462E+00  6.834E-04  1.356E-03 -7.242E-05
   1    4   35     1    35    3.3862E+00  1.2834E-03   3.3849E+00  0.000E+00  0.000E+00  0.000E+00  1.31028E+02  1.378E+00  3.461E+00  6.834E-04  1.355E-03 -7.180E-05
   1    4   36     1    36    3.3849E+00  1.2831E-03   3.3836E+00  0.000E+00  0.000E+00  0.000E+00  1.30728E+02  1.378E+00  3.461E+00  6.833E-04  1.354E-03 -7.122E-05
   1    4   37     1    37    3.3836E+00  1.2827E-03   3.3823E+00  0.000E+00  0.000E+00  0.000E+00  1.30428E+02  1.378E+00  3.461E+00  6.832E-04  1.353E-03 -7.067E-05
   1    4   38     1    38    3.3823E+00  1.2824E-03   3.3810E+00  0.000E+00  0.000E+00  0.000E+00  1.30127E+02  1.377E+00  3.460E+00  6.831E-04  1.353E-03 -7.016E-05
   1    4   39     1    39    3.3810E+00  1.2820E-03   3.3797E+00  0.000E+00  0.000E+00  0.000E+00  1.29827E+02  1.377E+00  3.460E+00  6.830E-04  1.352E-03 -6.968E-05
   1    4   40     1    40    3.3797E+00  1.2817E-03   3.3785E+00  0.000E+00  0.000E+00  0.000E+00  1.29527E+02  1.377E+00  3.460E+00  6.829E-04  1.351E-03 -6.924E-05
   1    4   41     1    41    3.3785E+00  1.2813E-03   3.3772E+00  0.000E+00  0.000E+00  0.000E+00  1.29227E+02  1.377E+00  3.459E+00  6.828E-04  1.350E-03 -6.883E-05
   1    4   42     1    42    3.3772E+00  1.2810E-03   3.3759E+00  0.000E+00  0.000E+00  0.000E+00  1.28926E+02  1.376E+00  3.459E+00  6.827E-04  1.349E-03 -6.846E-05
   1    4   43     1    43    3.3759E+00  1.2806E-03   3.3746E+00  0.000E+00  0.000E+00  0.000E+00  1.28626E+02  1.376E+00  3.459E+00  6.826E-04  1.349E-03 -6.813E-05
   1    4   44     1    44    3.3746E+00  1.2803E-03   3.3733E+00  0.000E+00  0.000E+00  0.000E+00  1.28326E+02  1.376E+00  3.458E+00  6.826E-04  1.348E-03 -6.783E-05
   1    4   45     1    45    3.3733E+00  1.2799E-03   3.3721E+00  0.000E+00  0.000E+00  0.000E+00  1.28025E+02  1.375E+00  3.458E+00  6.825E-04  1.348E-03 -6.758E-05
   1    4   46     1    46    3.3721E+00  1.2796E-03   3.3708E+00  0.000E+00  0.000E+00  0.000E+00  1.27725E+02  1.375E+00  3.458E+00  6.824E-04  1.347E-03 -6.737E-05
   1    4   47     1    47    3.3708E+00  1.2792E-03   3.3695E+00  0.000E+00  0.000E+00  0.000E+00  1.27425E+02  1.375E+00  3.457E+00  6.823E-04  1.346E-03 -6.719E-05
   1    4   48     1    48    3.3695E+00  1.2789E-03   3.3682E+00  0.000E+00  0.000E+00  0.000E+00  1.27125E+02  1.375E+00  3.457E+00  6.822E-04  1.346E-03 -6.706E-05
   1    4   49     1    49    3.3682E+00  1.2785E-03   3.3669E+00  0.000E+00  0.000E+00  0.000E+00  1.26824E+02  1.374E+00  3.457E+00  6.821E-04  1.346E-03 -6.697E-05
   1    4   50     1    50    3.3669E+00  1.2782E-03   3.3657E+00  0.000E+00  0.000E+00  0.000E+00  1.26524E+02  1.374E+00  3.456E+00  6.820E-04  1.345E-03 -6.692E-05
   1    4   51     1    51    3.3657E+00  1.2778E-03   3.3644E+00  0.000E+00  0.000E+00  0.000E+00  1.26224E+02  1.374E+00  3.456E+00  6.819E-04  1.345E-03 -6.692E-05
   1    4   52     1    52    3.3644E+00  1.2775E-03   3.3631E+00  0.000E+00  0.000E+00  0.000E+00  1.25924E+02  1.374E+00  3.456E+00  6.818E-04  1.345E-03 -6.696E-05
   1    4   53     1    53    3.3631E+00  1.2771E-03   3.3618E+00  0.000E+00  0.000E+00  0.000E+00  1.25623E+02  1.373E+00  3.456E+00  6.818E-04  1.344E-03 -6.705E-05
   1    4   54     1    54    3.3618E+00  1.2768E-03   3.3606E+00  0.000E+00  0.000E+00  0.000E+00  1.25323E+02  1.373E+00  3.455E+00  6.817E-04  1.344E-03 -6.696E-05
   1    4   55     1    55    3.3606E+00  1.2764E-03   3.3593E+00  0.000E+00  0.000E+00  0.000E+00  1.25023E+02  1.373E+00  3.455E+00  6.816E-04  1.343E-03 -6.654E-05
   1    4   56     1    56    3.3593E+00  1.2761E-03   3.3580E+00  0.000E+00  0.000E+00  0.000E+00  1.24722E+02  1.372E+00  3.455E+00  6.815E-04  1.342E-03 -6.613E-05
   1    4   57     1    57    3.3580E+00  1.2757E-03   3.3567E+00  0.000E+00  0.000E+00  0.000E+00  1.24422E+02  1.372E+00  3.454E+00  6.814E-04  1.342E-03 -6.572E-05
   1    4   58     1    58    3.3567E+00  1.2754E-03   3.3554E+00  0.000E+00  0.000E+00  0.000E+00  1.24122E+02  1.372E+00  3.454E+00  6.813E-04  1.341E-03 -6.532E-05
   1    4   59     1    59    3.3554E+00  1.2750E-03   3.3542E+00  0.000E+00  0.000E+00  0.000E+00  1.23822E+02  1.372E+00  3.454E+00  6.812E-04  1.340E-03 -6.494E-05
   1    4   60     1    60    3.3542E+00  1.2747E-03   3.3529E+00  0.000E+00  0.000E+00  0.000E+00  1.23521E+02  1.371E+00  3.453E+00  6.811E-04  1.339E-03 -6.458E-05
   1    4   61     1    61    3.3529E+00  1.2743E-03   3.3516E+00  0.000E+00  0.000E+00  0.000E+00  1.23221E+02  1.371E+00  3.453E+00  6.811E-04  1.339E-03 -6.422E-05
   1    4   62     1    62    3.3516E+00  1.2740E-03   3.3503E+00  0.000E+00  0.000E+00  0.000E+00  1.22921E+02  1.371E+00  3.453E+00  6.810E-04  1.338E-03 -6.388E-05
   1    4   63     1    63    3.3503E+00  1.2736E-03   3.3491E+00  0.000E+00  0.000E+00  0.000E+00  1.22621E+02  1.371E+00  3.452E+00  6.809E-04  1.337E-03 -6.354E-05
   1    4   64     1    64    3.3491E+00  1.2733E-03   3.3478E+00  0.000E+00  0.000E+00  0.000E+00  1.22320E+02  1.370E+00  3.452E+00  6.808E-04  1.337E-03 -6.320E-05
   1    4   65     1    65    3.3478E+00  1.2729E-03   3.3465E+00  0.000E+00  0.000E+00  0.000E+00  1.22020E+02  1.370E+00  3.452E+00  6.807E-04  1.336E-03 -6.288E-05
   1    4   66     1    66    3.3465E+00  1.2726E-03   3.3453E+00  0.000E+00  0.000E+00  0.000E+00  1.21720E+02  1.370E+00  3.451E+00  6.806E-04  1.335E-03 -6.256E-05
   1    4   67     1    67    3.3453E+00  1.2722E-03   3.3440E+00  0.000E+00  0.000E+00  0.000E+00  1.21419E+02  1.369E+00  3.451E+00  6.805E-04  1.335E-03 -6.224E-05
   1    4   68     1    68    3.3440E+00  1.2719E-03   3.3427E+00  0.000E+00  0.000E+00  0.000E+00  1.21119E+02  1.369E+00  3.451E+00  6.804E-04  1.334E-03 -6.193E-05
   1    4   69     1    69    3.3427E+00  1.2715E-03   3.3414E+00  0.000E+00  0.000E+00  0.000E+00  1.20819E+02  1.369E+00  3.450E+00  6.803E-04  1.333E-03 -6.163E-05
   1    4   70     1    70    3.3414E+00  1.2712E-03   3.3402E+00  0.000E+00  0.000E+00  0.000E+00  1.20519E+02  1.369E+00  3.450E+00  6.803E-04  1.333E-03 -6.133E-05
   1    4   71     1    71    3.3402E+00  1.2708E-03   3.3389E+00  0.000E+00  0.000E+00  0.000E+00  1.20218E+02  1.368E+00  3.450E+00  6.802E-04  1.332E-03 -6.103E-05
   1    4   72     1    72    3.3389E+00  1.2705E-03   3.3376E+00  0.000E+00  0.000E+00  0.000E+00  1.19918E+02  1.368E+00  3.449E+00  6.801E-04  1.331E-03 -6.073E-05
   1    4   73     1    73    3.3376E+00  1.2701E-03   3.3364E+00  0.000E+00  0.000E+00  0.000E+00  1.19618E+02  1.368E+00  3.449E+00  6.800E-04  1.331E-03 -6.043E-05
   1    4   74     1    74    3.3364E+00  1.2698E-03   3.3351E+00  0.000E+00  0.000E+00  0.000E+00  1.19318E+02  1.368E+00  3.449E+00  6.799E-04  1.330E-03 -6.013E-05
   1    4   75     1    75    3.3351E+00  1.2694E-03   3.3338E+00  0.000E+00  0.000E+00  0.000E+00  1.19017E+02  1.367E+00  3.448E+00  6.798E-04  1.329E-03 -5.982E-05
   1    4   76     1    76    3.3338E+00  1.2691E-03   3.3326E+00  0.000E+00  0.000E+00  0.000E+00  1.18717E+02  1.367E+00  3.448E+00  6.797E-04  1.329E-03 -5.952E-05
   1    4   77     1    77    3.3326E+00  1.2687E-03   3.3313E+00  0.000E+00  0.000E+00  0.000E+00  1.18417E+02  1.367E+00  3.448E+00  6.796E-04  1.328E-03 -5.921E-05
   1    4   78     1    78    3.3313E+00  1.2684E-03   3.3300E+00  0.000E+00  0.000E+00  0.000E+00  1.18117E+02  1.367E+00  3.447E+00  6.796E-04  1.327E-03 -5.889E-05
   1    4   79     1    79    3.3300E+00  1.2680E-03   3.3287E+00  0.000E+00  0.000E+00  0.000E+00  1.17816E+02  1.366E+00  3.447E+00  6.795E-04  1.327E-03 -5.857E-05
   1    4   80     1    80    3.3287E+00  1.2677E-03   3.3275E+00  0.000E+00  0.000E+00  0.000E+00  1.17516E+02  1.366E+00  3.447E+00  6.794E-04  1.326E-03 -5.824E-05
   1    4   81     1    81    3.3275E+00  1.2673E-03   3.3262E+00  0.000E+00  0.000E+00  0.000E+00  1.17216E+02  1.366E+00  3.446E+00  6.793E-04  1.325E-03 -5.791E-05
   1    4   82     1    82    3.3262E+00  1.2670E-03   3.3249E+00  0.000E+00  0.000E+00  0.000E+00  1.16915E+02  1.365E+00  3.446E+00  6.792E-04  1.325E-03 -5.758E-05
   1    4   83     1    83    3.3249E+00  1.2667E-03   3.3237E+00  0.000E+00  0.000E+00  0.000E+00  1.16615E+02  1.365E+00  3.446E+00  6.791E-04  1.324E-03 -5.724E-05
   1    4   84     1    84    3.3237E+00  1.2663E-03   3.3224E+00  0.000E+00  0.000E+00  0.000E+00  1.16315E+02  1.365E+00  3.445E+00  6.790E-04  1.323E-03 -5.691E-05
   1    4   85     1    85    3.3224E+00  1.2660E-03   3.3211E+00  0.000E+00  0.000E+00  0.000E+00  1.16015E+02  1.365E+00  3.445E+00  6.789E-04  1.323E-03 -5.658E-05
   1    4   86     1    86    3.3211E+00  1.2656E-03   3.3199E+00  0.000E+00  0.000E+00  0.000E+00  1.15714E+02  1.364E+00  3.445E+00  6.788E-04  1.322E-03 -5.626E-05
   1    4   87     1    87    3.3199E+00  1.2653E-03   3.3186E+00  0.000E+00  0.000E+00  0.000E+00  1.15414E+02  1.364E+00  3.445E+00  6.788E-04  1.321E-03 -5.597E-05
   1    4   88     1    88    3.3186E+00  1.2649E-03   3.3173E+00  0.000E+00  0.000E+00  0.000E+00  1.15114E+02  1.364E+00  3.444E+00  6.787E-04  1.321E-03 -5.570E-05
   1    4   89     1    89    3.3173E+00  1.2646E-03   3.3161E+00  0.000E+00  0.000E+00  0.000E+00  1.14814E+02  1.364E+00  3.444E+00  6.786E-04  1.320E-03 -5.547E-05
   1    4   90     1    90    3.3161E+00  1.2642E-03   3.3148E+00  0.000E+00  0.000E+00  0.000E+00  1.14513E+02  1.363E+00  3.444E+00  6.785E-04  1.320E-03 -5.530E-05
   1    4   91     1    91    3.3148E+00  1.2639E-03   3.3136E+00  0.000E+00  0.000E+00  0.000E+00  1.14213E+02  1.363E+00  3.443E+00  6.784E-04  1.319E-03 -5.521E-05
   1    4   92     1    92    3.3136E+00  1.2635E-03   3.3123E+00  0.000E+00  0.000E+00  0.000E+00  1.13913E+02  1.363E+00  3.443E+00  6.783E-04  1.319E-03 -5.522E-05
   1    4   93     1    93    3.3123E+00  1.2632E-03   3.3110E+00  0.000E+00  0.000E+00  0.000E+00  1.13612E+02  1.362E+00  3.443E+00  6.782E-04  1.319E-03 -5.534E-05
   1    4   94     1    94    3.3110E+00  1.2628E-03   3.3098E+00  0.000E+00  0.000E+00  0.000E+00  1.13312E+02  1.362E+00  3.442E+00  6.781E-04  1.319E-03 -5.562E-05
   1    4   95     1    95    3.3098E+00  1.2625E-03   3.3085E+00  0.000E+00  0.000E+00  0.000E+00  1.13012E+02  1.362E+00  3.442E+00  6.781E-04  1.319E-03 -5.606E-05
   1    4   96     1    96    3.3085E+00  1.2621E-03   3.3072E+00  0.000E+00  0.000E+00  0.000E+00  1.12712E+02  1.362E+00  3.442E+00  6.780E-04  1.319E-03 -5.663E-05
   1    4   97     1    97    3.3072E+00  1.2618E-03   3.3060E+00  0.000E+00  0.000E+00  0.000E+00  1.12411E+02  1.361E+00  3.441E+00  6.779E-04  1.348E-03 -8.624E-05
   1    4   98     1    98    3.3060E+00  1.2614E-03   3.3047E+00  0.000E+00  0.000E+00  0.000E+00  1.12111E+02  1.361E+00  3.441E+00  6.778E-04  1.367E-03 -1.052E-04
   1    4   99     1    99    3.3047E+00  1.2611E-03   3.3035E+00  0.000E+00  0.000E+00  0.000E+00  1.11811E+02  1.361E+00  3.441E+00  6.777E-04  1.368E-03 -1.066E-04
   1    4  100     1   100    3.3035E+00  1.2607E-03   3.3022E+00  0.000E+00  0.000E+00  0.000E+00  1.11511E+02  1.361E+00  3.440E+00  6.776E-04  1.369E-03 -1.081E-04



1
  VOLUMETRIC BUDGET FOR UNSATURATED ZONE BENEATH STREAMS AT END OF TIME STEP  30 STRESS PERIOD  45
  ------------------------------------------------------------------------------------------------

    CUMULATIVE VOLUMES             L**3    RATES FOR THIS TIME STEP         L**3/T
    ------------------                     ------------------------


          STREAM LOSS =     34855864.0000            STREAM LOSS =            0.1278
    CHANGE IN STORAGE =       414788.1875      CHANGE IN STORAGE =       -7.1000E-03
       RECHARGE TO GW =     34440000.0000         RECHARGE TO GW =            0.1349

             TOTAL IN =     34855864.0000               TOTAL IN =            0.1349

            TOTAL OUT =     34854788.0000              TOTAL OUT =            0.1349

             IN - OUT =         1076.0000               IN - OUT =       -1.5178E-05

  PERCENT DISCREPANCY =            0.00      PERCENT DISCREPANCY =             0.00



1
              HEAD IN LAYER   1 AT END OF TIME STEP  30 IN STRESS PERIOD   45
  ---------------------------------------------------------------------------

          1      2      3      4      5      6      7      8      9     10
         11     12     13     14     15     16     17     18     19     20
         21     22     23     24     25     26     27     28     29     30
         31     32     33     34     35     36     37     38     39     40
         41     42     43     44     45     46     47     48     49     50
         51     52     53     54     55     56     57     58     59     60
         61     62     63     64     65     66     67     68     69     70
         71     72     73     74     75     76     77     78     79     80
         81     82     83     84     85     86     87     88     89     90
         91     92     93     94     95     96     97     98     99    100
 .........................................................................
   1   115.6  115.6  115.6  115.6  115.6  115.6  115.5  115.5  115.4  115.4
       115.3  115.3  115.2  115.1  115.1  115.0  114.9  114.8  114.7  114.6
       114.5  114.4  114.2  114.1  114.0  113.8  113.7  113.5  113.3  113.2
       113.0  112.8  112.6  112.4  112.2  112.0  111.8  111.5  111.3  111.0
       110.8  110.5  110.2  110.0  109.7  109.4  109.1  108.8  108.4  108.1
       107.7  107.4  107.0  106.7  106.3  105.9  105.5  105.1  104.6  104.2
       103.7  103.3  102.8  102.3  101.8  101.3  100.8  100.3   99.7   99.2
        98.6   98.0   97.4   96.8   96.2   95.6   94.9   94.3   93.6   92.9
        92.2   91.4   90.7   89.9   89.2   88.4   87.5   86.7   85.8   85.0
        84.1   83.2   82.2   81.3   80.3   79.3   78.2   77.2   76.1   75.0
   2   115.6  115.6  115.6  115.6  115.6  115.6  115.5  115.5  115.4  115.4
       115.3  115.3  115.2  115.1  115.1  115.0  114.9  114.8  114.7  114.6
       114.5  114.4  114.2  114.1  114.0  113.8  113.7  113.5  113.3  113.2
       113.0  112.8  112.6  112.4  112.2  112.0  111.8  111.5  111.3  111.0
       110.8  110.5  110.2  110.0  109.7  109.4  109.1  108.8  108.4  108.1
       107.7  107.4  107.0  106.7  106.3  105.9  105.5  105.1  104.6  104.2
       103.7  103.3  102.8  102.3  101.8  101.3  100.8  100.3   99.7   99.2
        98.6   98.0   97.4   96.8   96.2   95.6   94.9   94.3   93.6   92.9
        92.2   91.4   90.7   89.9   89.2   88.4   87.5   86.7   85.9   85.0
        84.1   83.2   82.2   81.3   80.3   79.3   78.2   77.2   76.1   75.0
   3   115.6  115.6  115.6  115.6  115.6  115.6  115.5  115.5  115.5  115.4
       115.3  115.3  115.2  115.1  115.1  115.0  114.9  114.8  114.7  114.6
       114.5  114.4  114.2  114.1  114.0  113.8  113.7  113.5  113.3  113.2
       113.0  112.8  112.6  112.4  112.2  112.0  111.8  111.5  111.3  111.0
       110.8  110.5  110.2  110.0  109.7  109.4  109.1  108.8  108.4  108.1
       107.7  107.4  107.0  106.7  106.3  105.9  105.5  105.1  104.6  104.2
       103.8  103.3  102.8  102.3  101.8  101.3  100.8  100.3   99.7   99.2
        98.6   98.0   97.4   96.8   96.2   95.6   94.9   94.3   93.6   92.9
        92.2   91.4   90.7   89.9   89.2   88.4   87.5   86.7   85.9   85.0
        84.1   83.2   82.2   81.3   80.3   79.3   78.2   77.2   76.1   75.0
   4   115.7  115.6  115.6  115.6  115.6  115.6  115.5  115.5  115.5  115.4
       115.3  115.3  115.2  115.1  115.1  115.0  114.9  114.8  114.7  114.6
       114.5  114.4  114.2  114.1  114.0  113.8  113.7  113.5  113.3  113.2
       113.0  112.8  112.6  112.4  112.2  112.0  111.8  111.5  111.3  111.0
       110.8  110.5  110.2  110.0  109.7  109.4  109.1  108.8  108.4  108.1
       107.8  107.4  107.0  106.7  106.3  105.9  105.5  105.1  104.6  104.2
       103.8  103.3  102.8  102.3  101.8  101.3  100.8  100.3   99.8   99.2
        98.6   98.0   97.5   96.8   96.2   95.6   94.9   94.3   93.6   92.9
        92.2   91.4   90.7   89.9   89.2   88.4   87.5   86.7   85.9   85.0
        84.1   83.2   82.2   81.3   80.3   79.3   78.2   77.2   76.1   75.0
   5   115.6  115.6  115.6  115.6  115.6  115.6  115.5  115.5  115.5  115.4
       115.3  115.3  115.2  115.1  115.1  115.0  114.9  114.8  114.7  114.6
       114.5  114.4  114.2  114.1  114.0  113.8  113.7  113.5  113.3  113.2
       113.0  112.8  112.6  112.4  112.2  112.0  111.8  111.5  111.3  111.0
       110.8  110.5  110.2  110.0  109.7  109.4  109.1  108.8  108.4  108.1
       107.7  107.4  107.0  106.7  106.3  105.9  105.5  105.1  104.6  104.2
       103.8  103.3  102.8  102.3  101.8  101.3  100.8  100.3   99.7   99.2
        98.6   98.0   97.4   96.8   96.2   95.6   94.9   94.3   93.6   92.9
        92.2   91.4   90.7   89.9   89.2   88.4   87.5   86.7   85.9   85.0
        84.1   83.2   82.2   81.3   80.3   79.3   78.2   77.2   76.1   75.0
   6   115.6  115.6  115.6  115.6  115.6  115.6  115.5  115.5  115.4  115.4
       115.3  115.3  115.2  115.1  115.1  115.0  114.9  114.8  114.7  114.6
       114.5  114.4  114.2  114.1  114.0  113.8  113.7  113.5  113.3  113.2
       113.0  112.8  112.6  112.4  112.2  112.0  111.8  111.5  111.3  111.0
       110.8  110.5  110.2  110.0  109.7  109.4  109.1  108.8  108.4  108.1
       107.7  107.4  107.0  106.7  106.3  105.9  105.5  105.1  104.6  104.2
       103.7  103.3  102.8  102.3  101.8  101.3  100.8  100.3   99.7   99.2
        98.6   98.0   97.4   96.8   96.2   95.6   94.9   94.3   93.6   92.9
        92.2   91.4   90.7   89.9   89.2   88.4   87.5   86.7   85.9   85.0
        84.1   83.2   82.2   81.3   80.3   79.3   78.2   77.2   76.1   75.0
   7   115.6  115.6  115.6  115.6  115.6  115.6  115.5  115.5  115.4  115.4
       115.3  115.3  115.2  115.1  115.1  115.0  114.9  114.8  114.7  114.6
       114.5  114.4  114.2  114.1  114.0  113.8  113.7  113.5  113.3  113.2
       113.0  112.8  112.6  112.4  112.2  112.0  111.8  111.5  111.3  111.0
       110.8  110.5  110.2  110.0  109.7  109.4  109.1  108.8  108.4  108.1
       107.7  107.4  107.0  106.7  106.3  105.9  105.5  105.1  104.6  104.2
       103.7  103.3  102.8  102.3  101.8  101.3  100.8  100.3   99.7   99.2
        98.6   98.0   97.4   96.8   96.2   95.6   94.9   94.3   93.6   92.9
        92.2   91.4   90.7   89.9   89.2   88.4   87.5   86.7   85.8   85.0
        84.1   83.2   82.2   81.3   80.3   79.3   78.2   77.2   76.1   75.0
1
  VOLUMETRIC BUDGET FOR ENTIRE MODEL AT END OF TIME STEP 30 IN STRESS PERIOD  45
  ------------------------------------------------------------------------------

     CUMULATIVE VOLUMES      L**3       RATES FOR THIS TIME STEP      L**3/T
     ------------------                 ------------------------

           IN:                                      IN:
           ---                                      ---
             STORAGE =    16759287.0000               STORAGE =       6.6385E-02
       CONSTANT HEAD =           0.0000         CONSTANT HEAD =           0.0000
     HEAD DEP BOUNDS =           0.0000       HEAD DEP BOUNDS =           0.0000
      STREAM LEAKAGE =    34439556.0000        STREAM LEAKAGE =           0.1349

            TOTAL IN =    51198844.0000              TOTAL IN =           0.2013

          OUT:                                     OUT:
          ----                                     ----
             STORAGE =    17082104.0000               STORAGE =           0.0000
       CONSTANT HEAD =           0.0000         CONSTANT HEAD =           0.0000
     HEAD DEP BOUNDS =    34115496.0000       HEAD DEP BOUNDS =           0.2012
      STREAM LEAKAGE =           0.0000        STREAM LEAKAGE =           0.0000

           TOTAL OUT =    51197600.0000             TOTAL OUT =           0.2012

            IN - OUT =        1244.0000              IN - OUT =       7.0378E-05

 PERCENT DISCREPANCY =           0.00     PERCENT DISCREPANCY =           0.03






          TIME SUMMARY AT END OF TIME STEP  30 IN STRESS PERIOD   45
                    SECONDS     MINUTES      HOURS       DAYS        YEARS
                    -----------------------------------------------------------
   TIME STEP LENGTH 2.49961E+05  4166.0      69.434      2.8931     7.92080E-03
 STRESS PERIOD TIME 2.59200E+06  43200.      720.00      30.000     8.21355E-02
         TOTAL TIME 1.16640E+08 1.94400E+06  32400.      1350.0      3.6961    
1
1
                            STRESS PERIOD NO.   46, LENGTH =   2592000.    
                            -----------------------------------------------

                              NUMBER OF TIME STEPS =    30

                               MULTIPLIER FOR DELT =     1.100

                            INITIAL TIME STEP SIZE =   15757.40    

 REUSING NON-PARAMETER GHB CELLS FROM LAST STRESS PERIOD

      7 GHB CELLS



 CLASSIFICATION & COUNT OF STREAM SEGMENTS BASED ON SOURCE OF INFLOW:

                HEADWATER     DIVERSION     RECEIVES TRIBUTARY FLOW
                ---------     ---------     -----------------------
                     1              0               0



                    INPUT DATA FOR EACH STREAM SEGMENT
 ---------------------------------------------------------------------------------------------

 SEGMENT    SEG.     INFLOW   OVERLAND   STREAM    STREAM   ICALC  OUTFLOW  DIVERSION PRIORITY
    NO.    LENGTH     RATE     RUNOFF      ET       PPT.    METH.  TO SEG.  FROM SEG.    NO.

      1  2.000E+04 5.000E-01 0.000E+00 0.000E+00 0.000E+00    2        0        0        0


         STREAMBED PROPERTIES AND STREAM DIMENSIONS

 SEGMENT     BED HYD. COND.      BED THICKNESS     ELEV.-TOP OF BED     WIDTH OF STREAM     DEPTH OF STREAM    STREAM ROUGHNESS
    No.     UPPER     LOWER     UPPER     LOWER     UPPER     LOWER     UPPER     LOWER     UPPER     LOWER   CHANNEL      BANK

     1  3.500E-07 3.500E-07                                                                                 3.000E-02 4.000E-02

  EIGHT POINT CROSS-SECTION DATA FOR SEGMENTS WITH ICALC = 2
    X VALUES X VALUES START FROM LEFT SIDE LOOKING DOWNSTREAM

     SEGMENT NO.        X1        X2        X3        X4        X5        X6        X7        X8
            1      0.000E+00 2.000E+00 4.000E+00 6.000E+00 8.000E+00 1.000E+01 1.200E+01 1.400E+01

    Z VALUES ARE RELATIVE TO STREAMBED ELEVATION

     SEGMENT NO.          Z1        Z2        Z3        Z4        Z5        Z6        Z7        Z8
            1      6.000E+00 4.500E+00 3.500E+00 0.000E+00 3.000E-01 3.500E+00 4.500E+00 6.000E+00



 
 SOLVING FOR HEAD 

 NO OUTPUT CONTROL FOR STRESS PERIOD   46   TIME STEP   1
 
 SOLVING FOR HEAD 

 NO OUTPUT CONTROL FOR STRESS PERIOD   46   TIME STEP   2
 
 SOLVING FOR HEAD 

 NO OUTPUT CONTROL FOR STRESS PERIOD   46   TIME STEP   3
 
 SOLVING FOR HEAD 

 NO OUTPUT CONTROL FOR STRESS PERIOD   46   TIME STEP   4
 
 SOLVING FOR HEAD 

 NO OUTPUT CONTROL FOR STRESS PERIOD   46   TIME STEP   5
 
 SOLVING FOR HEAD 

 NO OUTPUT CONTROL FOR STRESS PERIOD   46   TIME STEP   6
 
 SOLVING FOR HEAD 

 NO OUTPUT CONTROL FOR STRESS PERIOD   46   TIME STEP   7
 
 SOLVING FOR HEAD 

 NO OUTPUT CONTROL FOR STRESS PERIOD   46   TIME STEP   8
 
 SOLVING FOR HEAD 

 NO OUTPUT CONTROL FOR STRESS PERIOD   46   TIME STEP   9
 
 SOLVING FOR HEAD 

 NO OUTPUT CONTROL FOR STRESS PERIOD   46   TIME STEP  10
 
 SOLVING FOR HEAD 

 NO OUTPUT CONTROL FOR STRESS PERIOD   46   TIME STEP  11
 
 SOLVING FOR HEAD 

 NO OUTPUT CONTROL FOR STRESS PERIOD   46   TIME STEP  12
 
 SOLVING FOR HEAD 

 NO OUTPUT CONTROL FOR STRESS PERIOD   46   TIME STEP  13
 
 SOLVING FOR HEAD 

 NO OUTPUT CONTROL FOR STRESS PERIOD   46   TIME STEP  14
 
 SOLVING FOR HEAD 

 NO OUTPUT CONTROL FOR STRESS PERIOD   46   TIME STEP  15
 
 SOLVING FOR HEAD 

 NO OUTPUT CONTROL FOR STRESS PERIOD   46   TIME STEP  16
 
 SOLVING FOR HEAD 

 NO OUTPUT CONTROL FOR STRESS PERIOD   46   TIME STEP  17
 
 SOLVING FOR HEAD 

 NO OUTPUT CONTROL FOR STRESS PERIOD   46   TIME STEP  18
 
 SOLVING FOR HEAD 

 NO OUTPUT CONTROL FOR STRESS PERIOD   46   TIME STEP  19
 
 SOLVING FOR HEAD 

 NO OUTPUT CONTROL FOR STRESS PERIOD   46   TIME STEP  20
 
 SOLVING FOR HEAD 

 NO OUTPUT CONTROL FOR STRESS PERIOD   46   TIME STEP  21
 
 SOLVING FOR HEAD 

 NO OUTPUT CONTROL FOR STRESS PERIOD   46   TIME STEP  22
 
 SOLVING FOR HEAD 

 NO OUTPUT CONTROL FOR STRESS PERIOD   46   TIME STEP  23
 
 SOLVING FOR HEAD 

 NO OUTPUT CONTROL FOR STRESS PERIOD   46   TIME STEP  24
 
 SOLVING FOR HEAD 

 NO OUTPUT CONTROL FOR STRESS PERIOD   46   TIME STEP  25
 
 SOLVING FOR HEAD 

 NO OUTPUT CONTROL FOR STRESS PERIOD   46   TIME STEP  26
 
 SOLVING FOR HEAD 

 NO OUTPUT CONTROL FOR STRESS PERIOD   46   TIME STEP  27
 
 SOLVING FOR HEAD 

 NO OUTPUT CONTROL FOR STRESS PERIOD   46   TIME STEP  28
 
 SOLVING FOR HEAD 

 NO OUTPUT CONTROL FOR STRESS PERIOD   46   TIME STEP  29
 
 SOLVING FOR HEAD 

 NO OUTPUT CONTROL FOR STRESS PERIOD   46   TIME STEP  30
1
  VOLUMETRIC BUDGET FOR UNSATURATED ZONE BENEATH STREAMS AT END OF TIME STEP  30 STRESS PERIOD  46
  ------------------------------------------------------------------------------------------------

    CUMULATIVE VOLUMES             L**3    RATES FOR THIS TIME STEP         L**3/T
    ------------------                     ------------------------


          STREAM LOSS =     34963496.0000            STREAM LOSS =        4.1477E-02
    CHANGE IN STORAGE =       322484.1875      CHANGE IN STORAGE =       -3.6959E-03
       RECHARGE TO GW =     34639508.0000         RECHARGE TO GW =        4.5174E-02

             TOTAL IN =     34963496.0000               TOTAL IN =        4.5173E-02

            TOTAL OUT =     34961992.0000              TOTAL OUT =        4.5174E-02

             IN - OUT =         1504.0000               IN - OUT =       -1.3607E-06

  PERCENT DISCREPANCY =            0.00      PERCENT DISCREPANCY =             0.00



1
  VOLUMETRIC BUDGET FOR ENTIRE MODEL AT END OF TIME STEP 30 IN STRESS PERIOD  46
  ------------------------------------------------------------------------------

     CUMULATIVE VOLUMES      L**3       RATES FOR THIS TIME STEP      L**3/T
     ------------------                 ------------------------

           IN:                                      IN:
           ---                                      ---
             STORAGE =    17074044.0000               STORAGE =           0.1498
       CONSTANT HEAD =           0.0000         CONSTANT HEAD =           0.0000
     HEAD DEP BOUNDS =           0.0000       HEAD DEP BOUNDS =           0.0000
      STREAM LEAKAGE =    34639372.0000        STREAM LEAKAGE =       4.5174E-02

            TOTAL IN =    51713416.0000              TOTAL IN =           0.1950

          OUT:                                     OUT:
          ----                                     ----
             STORAGE =    17082104.0000               STORAGE =           0.0000
       CONSTANT HEAD =           0.0000         CONSTANT HEAD =           0.0000
     HEAD DEP BOUNDS =    34630036.0000       HEAD DEP BOUNDS =           0.1949
      STREAM LEAKAGE =           0.0000        STREAM LEAKAGE =           0.0000

           TOTAL OUT =    51712140.0000             TOTAL OUT =           0.1949

            IN - OUT =        1276.0000              IN - OUT =       6.5655E-05

 PERCENT DISCREPANCY =           0.00     PERCENT DISCREPANCY =           0.03






          TIME SUMMARY AT END OF TIME STEP  30 IN STRESS PERIOD   46
                    SECONDS     MINUTES      HOURS       DAYS        YEARS
                    -----------------------------------------------------------
   TIME STEP LENGTH 2.49961E+05  4166.0      69.434      2.8931     7.92080E-03
 STRESS PERIOD TIME 2.59200E+06  43200.      720.00      30.000     8.21355E-02
         TOTAL TIME 1.19232E+08 1.98720E+06  33120.      1380.0      3.7782    
1
1
                            STRESS PERIOD NO.   47, LENGTH =   2592000.    
                            -----------------------------------------------

                              NUMBER OF TIME STEPS =    30

                               MULTIPLIER FOR DELT =     1.100

                            INITIAL TIME STEP SIZE =   15757.40    

 REUSING NON-PARAMETER GHB CELLS FROM LAST STRESS PERIOD

      7 GHB CELLS



 CLASSIFICATION & COUNT OF STREAM SEGMENTS BASED ON SOURCE OF INFLOW:

                HEADWATER     DIVERSION     RECEIVES TRIBUTARY FLOW
                ---------     ---------     -----------------------
                     1              0               0



                    INPUT DATA FOR EACH STREAM SEGMENT
 ---------------------------------------------------------------------------------------------

 SEGMENT    SEG.     INFLOW   OVERLAND   STREAM    STREAM   ICALC  OUTFLOW  DIVERSION PRIORITY
    NO.    LENGTH     RATE     RUNOFF      ET       PPT.    METH.  TO SEG.  FROM SEG.    NO.

      1  2.000E+04 2.100E+00 0.000E+00 0.000E+00 0.000E+00    2        0        0        0


         STREAMBED PROPERTIES AND STREAM DIMENSIONS

 SEGMENT     BED HYD. COND.      BED THICKNESS     ELEV.-TOP OF BED     WIDTH OF STREAM     DEPTH OF STREAM    STREAM ROUGHNESS
    No.     UPPER     LOWER     UPPER     LOWER     UPPER     LOWER     UPPER     LOWER     UPPER     LOWER   CHANNEL      BANK

     1  3.500E-07 3.500E-07                                                                                 3.000E-02 4.000E-02

  EIGHT POINT CROSS-SECTION DATA FOR SEGMENTS WITH ICALC = 2
    X VALUES X VALUES START FROM LEFT SIDE LOOKING DOWNSTREAM

     SEGMENT NO.        X1        X2        X3        X4        X5        X6        X7        X8
            1      0.000E+00 2.000E+00 4.000E+00 6.000E+00 8.000E+00 1.000E+01 1.200E+01 1.400E+01

    Z VALUES ARE RELATIVE TO STREAMBED ELEVATION

     SEGMENT NO.          Z1        Z2        Z3        Z4        Z5        Z6        Z7        Z8
            1      6.000E+00 4.500E+00 3.500E+00 0.000E+00 3.000E-01 3.500E+00 4.500E+00 6.000E+00



 
 SOLVING FOR HEAD 

 NO OUTPUT CONTROL FOR STRESS PERIOD   47   TIME STEP   1
 
 SOLVING FOR HEAD 

 NO OUTPUT CONTROL FOR STRESS PERIOD   47   TIME STEP   2
 
 SOLVING FOR HEAD 

 NO OUTPUT CONTROL FOR STRESS PERIOD   47   TIME STEP   3
 
 SOLVING FOR HEAD 

 NO OUTPUT CONTROL FOR STRESS PERIOD   47   TIME STEP   4
 
 SOLVING FOR HEAD 

 NO OUTPUT CONTROL FOR STRESS PERIOD   47   TIME STEP   5
 
 SOLVING FOR HEAD 

 NO OUTPUT CONTROL FOR STRESS PERIOD   47   TIME STEP   6
 
 SOLVING FOR HEAD 

 NO OUTPUT CONTROL FOR STRESS PERIOD   47   TIME STEP   7
 
 SOLVING FOR HEAD 

 NO OUTPUT CONTROL FOR STRESS PERIOD   47   TIME STEP   8
 
 SOLVING FOR HEAD 

 NO OUTPUT CONTROL FOR STRESS PERIOD   47   TIME STEP   9
 
 SOLVING FOR HEAD 

 NO OUTPUT CONTROL FOR STRESS PERIOD   47   TIME STEP  10
 
 SOLVING FOR HEAD 

 NO OUTPUT CONTROL FOR STRESS PERIOD   47   TIME STEP  11
 
 SOLVING FOR HEAD 

 NO OUTPUT CONTROL FOR STRESS PERIOD   47   TIME STEP  12
 
 SOLVING FOR HEAD 

 NO OUTPUT CONTROL FOR STRESS PERIOD   47   TIME STEP  13
 
 SOLVING FOR HEAD 

 NO OUTPUT CONTROL FOR STRESS PERIOD   47   TIME STEP  14
 
 SOLVING FOR HEAD 

 NO OUTPUT CONTROL FOR STRESS PERIOD   47   TIME STEP  15
 
 SOLVING FOR HEAD 

 NO OUTPUT CONTROL FOR STRESS PERIOD   47   TIME STEP  16
 
 SOLVING FOR HEAD 

 NO OUTPUT CONTROL FOR STRESS PERIOD   47   TIME STEP  17
 
 SOLVING FOR HEAD 

 NO OUTPUT CONTROL FOR STRESS PERIOD   47   TIME STEP  18
 
 SOLVING FOR HEAD 

 NO OUTPUT CONTROL FOR STRESS PERIOD   47   TIME STEP  19
 
 SOLVING FOR HEAD 

 NO OUTPUT CONTROL FOR STRESS PERIOD   47   TIME STEP  20
 
 SOLVING FOR HEAD 

 NO OUTPUT CONTROL FOR STRESS PERIOD   47   TIME STEP  21
 
 SOLVING FOR HEAD 

 NO OUTPUT CONTROL FOR STRESS PERIOD   47   TIME STEP  22
 
 SOLVING FOR HEAD 

 NO OUTPUT CONTROL FOR STRESS PERIOD   47   TIME STEP  23
 
 SOLVING FOR HEAD 

 NO OUTPUT CONTROL FOR STRESS PERIOD   47   TIME STEP  24
 
 SOLVING FOR HEAD 

 NO OUTPUT CONTROL FOR STRESS PERIOD   47   TIME STEP  25
 
 SOLVING FOR HEAD 

 NO OUTPUT CONTROL FOR STRESS PERIOD   47   TIME STEP  26
 
 SOLVING FOR HEAD 

 NO OUTPUT CONTROL FOR STRESS PERIOD   47   TIME STEP  27
 
 SOLVING FOR HEAD 

 NO OUTPUT CONTROL FOR STRESS PERIOD   47   TIME STEP  28
 
 SOLVING FOR HEAD 

 NO OUTPUT CONTROL FOR STRESS PERIOD   47   TIME STEP  29
 
 SOLVING FOR HEAD 

 NO OUTPUT CONTROL FOR STRESS PERIOD   47   TIME STEP  30
1
  VOLUMETRIC BUDGET FOR UNSATURATED ZONE BENEATH STREAMS AT END OF TIME STEP  30 STRESS PERIOD  47
  ------------------------------------------------------------------------------------------------

    CUMULATIVE VOLUMES             L**3    RATES FOR THIS TIME STEP         L**3/T
    ------------------                     ------------------------


          STREAM LOSS =     35198680.0000            STREAM LOSS =        9.0874E-02
    CHANGE IN STORAGE =       367254.3438      CHANGE IN STORAGE =       -2.8175E-03
       RECHARGE TO GW =     34830508.0000         RECHARGE TO GW =        9.3691E-02

             TOTAL IN =     35198680.0000               TOTAL IN =        9.3691E-02

            TOTAL OUT =     35197764.0000              TOTAL OUT =        9.3691E-02

             IN - OUT =          916.0000               IN - OUT =       -3.7253E-09

  PERCENT DISCREPANCY =            0.00      PERCENT DISCREPANCY =             0.00



1
  VOLUMETRIC BUDGET FOR ENTIRE MODEL AT END OF TIME STEP 30 IN STRESS PERIOD  47
  ------------------------------------------------------------------------------

     CUMULATIVE VOLUMES      L**3       RATES FOR THIS TIME STEP      L**3/T
     ------------------                 ------------------------

           IN:                                      IN:
           ---                                      ---
             STORAGE =    17383202.0000               STORAGE =       9.8393E-02
       CONSTANT HEAD =           0.0000         CONSTANT HEAD =           0.0000
     HEAD DEP BOUNDS =           0.0000       HEAD DEP BOUNDS =           0.0000
      STREAM LEAKAGE =    34830148.0000        STREAM LEAKAGE =       9.3691E-02

            TOTAL IN =    52213352.0000              TOTAL IN =           0.1921

          OUT:                                     OUT:
          ----                                     ----
             STORAGE =    17082126.0000               STORAGE =           0.0000
       CONSTANT HEAD =           0.0000         CONSTANT HEAD =           0.0000
     HEAD DEP BOUNDS =    35129952.0000       HEAD DEP BOUNDS =           0.1920
      STREAM LEAKAGE =           0.0000        STREAM LEAKAGE =           0.0000

           TOTAL OUT =    52212080.0000             TOTAL OUT =           0.1920

            IN - OUT =        1272.0000              IN - OUT =       4.2424E-05

 PERCENT DISCREPANCY =           0.00     PERCENT DISCREPANCY =           0.02






          TIME SUMMARY AT END OF TIME STEP  30 IN STRESS PERIOD   47
                    SECONDS     MINUTES      HOURS       DAYS        YEARS
                    -----------------------------------------------------------
   TIME STEP LENGTH 2.49961E+05  4166.0      69.434      2.8931     7.92080E-03
 STRESS PERIOD TIME 2.59200E+06  43200.      720.00      30.000     8.21355E-02
         TOTAL TIME 1.21824E+08 2.03040E+06  33840.      1410.0      3.8604    
1
1
                            STRESS PERIOD NO.   48, LENGTH =   2592000.    
                            -----------------------------------------------

                              NUMBER OF TIME STEPS =    30

                               MULTIPLIER FOR DELT =     1.100

                            INITIAL TIME STEP SIZE =   15757.40    

 REUSING NON-PARAMETER GHB CELLS FROM LAST STRESS PERIOD

      7 GHB CELLS



 CLASSIFICATION & COUNT OF STREAM SEGMENTS BASED ON SOURCE OF INFLOW:

                HEADWATER     DIVERSION     RECEIVES TRIBUTARY FLOW
                ---------     ---------     -----------------------
                     1              0               0



                    INPUT DATA FOR EACH STREAM SEGMENT
 ---------------------------------------------------------------------------------------------

 SEGMENT    SEG.     INFLOW   OVERLAND   STREAM    STREAM   ICALC  OUTFLOW  DIVERSION PRIORITY
    NO.    LENGTH     RATE     RUNOFF      ET       PPT.    METH.  TO SEG.  FROM SEG.    NO.

      1  2.000E+04 4.200E+00 0.000E+00 0.000E+00 0.000E+00    2        0        0        0


         STREAMBED PROPERTIES AND STREAM DIMENSIONS

 SEGMENT     BED HYD. COND.      BED THICKNESS     ELEV.-TOP OF BED     WIDTH OF STREAM     DEPTH OF STREAM    STREAM ROUGHNESS
    No.     UPPER     LOWER     UPPER     LOWER     UPPER     LOWER     UPPER     LOWER     UPPER     LOWER   CHANNEL      BANK

     1  3.500E-07 3.500E-07                                                                                 3.000E-02 4.000E-02

  EIGHT POINT CROSS-SECTION DATA FOR SEGMENTS WITH ICALC = 2
    X VALUES X VALUES START FROM LEFT SIDE LOOKING DOWNSTREAM

     SEGMENT NO.        X1        X2        X3        X4        X5        X6        X7        X8
            1      0.000E+00 2.000E+00 4.000E+00 6.000E+00 8.000E+00 1.000E+01 1.200E+01 1.400E+01

    Z VALUES ARE RELATIVE TO STREAMBED ELEVATION

     SEGMENT NO.          Z1        Z2        Z3        Z4        Z5        Z6        Z7        Z8
            1      6.000E+00 4.500E+00 3.500E+00 0.000E+00 3.000E-01 3.500E+00 4.500E+00 6.000E+00



 
 SOLVING FOR HEAD 

 NO OUTPUT CONTROL FOR STRESS PERIOD   48   TIME STEP   1
 
 SOLVING FOR HEAD 

 NO OUTPUT CONTROL FOR STRESS PERIOD   48   TIME STEP   2
 
 SOLVING FOR HEAD 

 NO OUTPUT CONTROL FOR STRESS PERIOD   48   TIME STEP   3
 
 SOLVING FOR HEAD 

 NO OUTPUT CONTROL FOR STRESS PERIOD   48   TIME STEP   4
 
 SOLVING FOR HEAD 

 NO OUTPUT CONTROL FOR STRESS PERIOD   48   TIME STEP   5
 
 SOLVING FOR HEAD 

 NO OUTPUT CONTROL FOR STRESS PERIOD   48   TIME STEP   6
 
 SOLVING FOR HEAD 

 NO OUTPUT CONTROL FOR STRESS PERIOD   48   TIME STEP   7
 
 SOLVING FOR HEAD 

 NO OUTPUT CONTROL FOR STRESS PERIOD   48   TIME STEP   8
 
 SOLVING FOR HEAD 

 NO OUTPUT CONTROL FOR STRESS PERIOD   48   TIME STEP   9
 
 SOLVING FOR HEAD 

 NO OUTPUT CONTROL FOR STRESS PERIOD   48   TIME STEP  10
 
 SOLVING FOR HEAD 

 NO OUTPUT CONTROL FOR STRESS PERIOD   48   TIME STEP  11
 
 SOLVING FOR HEAD 

 NO OUTPUT CONTROL FOR STRESS PERIOD   48   TIME STEP  12
 
 SOLVING FOR HEAD 

 NO OUTPUT CONTROL FOR STRESS PERIOD   48   TIME STEP  13
 
 SOLVING FOR HEAD 

 NO OUTPUT CONTROL FOR STRESS PERIOD   48   TIME STEP  14
 
 SOLVING FOR HEAD 

 NO OUTPUT CONTROL FOR STRESS PERIOD   48   TIME STEP  15
 
 SOLVING FOR HEAD 

 NO OUTPUT CONTROL FOR STRESS PERIOD   48   TIME STEP  16
 
 SOLVING FOR HEAD 

 NO OUTPUT CONTROL FOR STRESS PERIOD   48   TIME STEP  17
 
 SOLVING FOR HEAD 

 NO OUTPUT CONTROL FOR STRESS PERIOD   48   TIME STEP  18
 
 SOLVING FOR HEAD 

 NO OUTPUT CONTROL FOR STRESS PERIOD   48   TIME STEP  19
 
 SOLVING FOR HEAD 

 NO OUTPUT CONTROL FOR STRESS PERIOD   48   TIME STEP  20
 
 SOLVING FOR HEAD 

 NO OUTPUT CONTROL FOR STRESS PERIOD   48   TIME STEP  21
 
 SOLVING FOR HEAD 

 NO OUTPUT CONTROL FOR STRESS PERIOD   48   TIME STEP  22
 
 SOLVING FOR HEAD 

 NO OUTPUT CONTROL FOR STRESS PERIOD   48   TIME STEP  23
 
 SOLVING FOR HEAD 

 NO OUTPUT CONTROL FOR STRESS PERIOD   48   TIME STEP  24
 
 SOLVING FOR HEAD 

 NO OUTPUT CONTROL FOR STRESS PERIOD   48   TIME STEP  25
 
 SOLVING FOR HEAD 

 NO OUTPUT CONTROL FOR STRESS PERIOD   48   TIME STEP  26
 
 SOLVING FOR HEAD 

 NO OUTPUT CONTROL FOR STRESS PERIOD   48   TIME STEP  27
 
 SOLVING FOR HEAD 

 NO OUTPUT CONTROL FOR STRESS PERIOD   48   TIME STEP  28
 
 SOLVING FOR HEAD 

 NO OUTPUT CONTROL FOR STRESS PERIOD   48   TIME STEP  29
 
 SOLVING FOR HEAD 

 NO OUTPUT CONTROL FOR STRESS PERIOD   48   TIME STEP  30
1
  VOLUMETRIC BUDGET FOR UNSATURATED ZONE BENEATH STREAMS AT END OF TIME STEP  30 STRESS PERIOD  48
  ------------------------------------------------------------------------------------------------

    CUMULATIVE VOLUMES             L**3    RATES FOR THIS TIME STEP         L**3/T
    ------------------                     ------------------------


          STREAM LOSS =     35583000.0000            STREAM LOSS =            0.1484
    CHANGE IN STORAGE =       400846.0625      CHANGE IN STORAGE =       -2.0084E-03
       RECHARGE TO GW =     35181720.0000         RECHARGE TO GW =            0.1504

             TOTAL IN =     35583000.0000               TOTAL IN =            0.1504

            TOTAL OUT =     35582568.0000              TOTAL OUT =            0.1504

             IN - OUT =          432.0000               IN - OUT =        5.5879E-09

  PERCENT DISCREPANCY =            0.00      PERCENT DISCREPANCY =             0.00



1
  VOLUMETRIC BUDGET FOR ENTIRE MODEL AT END OF TIME STEP 30 IN STRESS PERIOD  48
  ------------------------------------------------------------------------------

     CUMULATIVE VOLUMES      L**3       RATES FOR THIS TIME STEP      L**3/T
     ------------------                 ------------------------

           IN:                                      IN:
           ---                                      ---
             STORAGE =    17531034.0000               STORAGE =       4.2337E-02
       CONSTANT HEAD =           0.0000         CONSTANT HEAD =           0.0000
     HEAD DEP BOUNDS =           0.0000       HEAD DEP BOUNDS =           0.0000
      STREAM LEAKAGE =    35181140.0000        STREAM LEAKAGE =           0.1504

            TOTAL IN =    52712176.0000              TOTAL IN =           0.1927

          OUT:                                     OUT:
          ----                                     ----
             STORAGE =    17082732.0000               STORAGE =       1.1920E-05
       CONSTANT HEAD =           0.0000         CONSTANT HEAD =           0.0000
     HEAD DEP BOUNDS =    35628188.0000       HEAD DEP BOUNDS =           0.1927
      STREAM LEAKAGE =           0.0000        STREAM LEAKAGE =           0.0000

           TOTAL OUT =    52710920.0000             TOTAL OUT =           0.1927

            IN - OUT =        1256.0000              IN - OUT =       5.5268E-05

 PERCENT DISCREPANCY =           0.00     PERCENT DISCREPANCY =           0.03






          TIME SUMMARY AT END OF TIME STEP  30 IN STRESS PERIOD   48
                    SECONDS     MINUTES      HOURS       DAYS        YEARS
                    -----------------------------------------------------------
   TIME STEP LENGTH 2.49961E+05  4166.0      69.434      2.8931     7.92080E-03
 STRESS PERIOD TIME 2.59200E+06  43200.      720.00      30.000     8.21355E-02
         TOTAL TIME 1.24416E+08 2.07360E+06  34560.      1440.0      3.9425    
1
1
                            STRESS PERIOD NO.   49, LENGTH =   2592000.    
                            -----------------------------------------------

                              NUMBER OF TIME STEPS =    30

                               MULTIPLIER FOR DELT =     1.100

                            INITIAL TIME STEP SIZE =   15757.40    

 REUSING NON-PARAMETER GHB CELLS FROM LAST STRESS PERIOD

      7 GHB CELLS



 CLASSIFICATION & COUNT OF STREAM SEGMENTS BASED ON SOURCE OF INFLOW:

                HEADWATER     DIVERSION     RECEIVES TRIBUTARY FLOW
                ---------     ---------     -----------------------
                     1              0               0



                    INPUT DATA FOR EACH STREAM SEGMENT
 ---------------------------------------------------------------------------------------------

 SEGMENT    SEG.     INFLOW   OVERLAND   STREAM    STREAM   ICALC  OUTFLOW  DIVERSION PRIORITY
    NO.    LENGTH     RATE     RUNOFF      ET       PPT.    METH.  TO SEG.  FROM SEG.    NO.

      1  2.000E+04 0.000E+00 0.000E+00 0.000E+00 0.000E+00    2        0        0        0


         STREAMBED PROPERTIES AND STREAM DIMENSIONS

 SEGMENT     BED HYD. COND.      BED THICKNESS     ELEV.-TOP OF BED     WIDTH OF STREAM     DEPTH OF STREAM    STREAM ROUGHNESS
    No.     UPPER     LOWER     UPPER     LOWER     UPPER     LOWER     UPPER     LOWER     UPPER     LOWER   CHANNEL      BANK

     1  3.500E-07 3.500E-07                                                                                 3.000E-02 4.000E-02

  EIGHT POINT CROSS-SECTION DATA FOR SEGMENTS WITH ICALC = 2
    X VALUES X VALUES START FROM LEFT SIDE LOOKING DOWNSTREAM

     SEGMENT NO.        X1        X2        X3        X4        X5        X6        X7        X8
            1      0.000E+00 2.000E+00 4.000E+00 6.000E+00 8.000E+00 1.000E+01 1.200E+01 1.400E+01

    Z VALUES ARE RELATIVE TO STREAMBED ELEVATION

     SEGMENT NO.          Z1        Z2        Z3        Z4        Z5        Z6        Z7        Z8
            1      6.000E+00 4.500E+00 3.500E+00 0.000E+00 3.000E-01 3.500E+00 4.500E+00 6.000E+00



 
 SOLVING FOR HEAD 

 NO OUTPUT CONTROL FOR STRESS PERIOD   49   TIME STEP   1
 
 SOLVING FOR HEAD 

 NO OUTPUT CONTROL FOR STRESS PERIOD   49   TIME STEP   2
 
 SOLVING FOR HEAD 

 NO OUTPUT CONTROL FOR STRESS PERIOD   49   TIME STEP   3
 
 SOLVING FOR HEAD 

 NO OUTPUT CONTROL FOR STRESS PERIOD   49   TIME STEP   4
 
 SOLVING FOR HEAD 

 NO OUTPUT CONTROL FOR STRESS PERIOD   49   TIME STEP   5
 
 SOLVING FOR HEAD 

 NO OUTPUT CONTROL FOR STRESS PERIOD   49   TIME STEP   6
 
 SOLVING FOR HEAD 

 NO OUTPUT CONTROL FOR STRESS PERIOD   49   TIME STEP   7
 
 SOLVING FOR HEAD 

 NO OUTPUT CONTROL FOR STRESS PERIOD   49   TIME STEP   8
 
 SOLVING FOR HEAD 

 NO OUTPUT CONTROL FOR STRESS PERIOD   49   TIME STEP   9
 
 SOLVING FOR HEAD 

 NO OUTPUT CONTROL FOR STRESS PERIOD   49   TIME STEP  10
 
 SOLVING FOR HEAD 

 NO OUTPUT CONTROL FOR STRESS PERIOD   49   TIME STEP  11
 
 SOLVING FOR HEAD 

 NO OUTPUT CONTROL FOR STRESS PERIOD   49   TIME STEP  12
 
 SOLVING FOR HEAD 

 NO OUTPUT CONTROL FOR STRESS PERIOD   49   TIME STEP  13
 
 SOLVING FOR HEAD 

 NO OUTPUT CONTROL FOR STRESS PERIOD   49   TIME STEP  14
 
 SOLVING FOR HEAD 

 NO OUTPUT CONTROL FOR STRESS PERIOD   49   TIME STEP  15
 
 SOLVING FOR HEAD 

 NO OUTPUT CONTROL FOR STRESS PERIOD   49   TIME STEP  16
 
 SOLVING FOR HEAD 

 NO OUTPUT CONTROL FOR STRESS PERIOD   49   TIME STEP  17
 
 SOLVING FOR HEAD 

 NO OUTPUT CONTROL FOR STRESS PERIOD   49   TIME STEP  18
 
 SOLVING FOR HEAD 

 NO OUTPUT CONTROL FOR STRESS PERIOD   49   TIME STEP  19
 
 SOLVING FOR HEAD 

 NO OUTPUT CONTROL FOR STRESS PERIOD   49   TIME STEP  20
 
 SOLVING FOR HEAD 

 NO OUTPUT CONTROL FOR STRESS PERIOD   49   TIME STEP  21
 
 SOLVING FOR HEAD 

 NO OUTPUT CONTROL FOR STRESS PERIOD   49   TIME STEP  22
 
 SOLVING FOR HEAD 

 NO OUTPUT CONTROL FOR STRESS PERIOD   49   TIME STEP  23
 
 SOLVING FOR HEAD 

 NO OUTPUT CONTROL FOR STRESS PERIOD   49   TIME STEP  24
 
 SOLVING FOR HEAD 

 NO OUTPUT CONTROL FOR STRESS PERIOD   49   TIME STEP  25
 
 SOLVING FOR HEAD 

 NO OUTPUT CONTROL FOR STRESS PERIOD   49   TIME STEP  26
 
 SOLVING FOR HEAD 

 NO OUTPUT CONTROL FOR STRESS PERIOD   49   TIME STEP  27
 
 SOLVING FOR HEAD 

 NO OUTPUT CONTROL FOR STRESS PERIOD   49   TIME STEP  28
 
 SOLVING FOR HEAD 

 NO OUTPUT CONTROL FOR STRESS PERIOD   49   TIME STEP  29
 
 SOLVING FOR HEAD 

 NO OUTPUT CONTROL FOR STRESS PERIOD   49   TIME STEP  30
1
  VOLUMETRIC BUDGET FOR UNSATURATED ZONE BENEATH STREAMS AT END OF TIME STEP  30 STRESS PERIOD  49
  ------------------------------------------------------------------------------------------------

    CUMULATIVE VOLUMES             L**3    RATES FOR THIS TIME STEP         L**3/T
    ------------------                     ------------------------


          STREAM LOSS =     35583000.0000            STREAM LOSS =            0.0000
    CHANGE IN STORAGE =       213523.5781      CHANGE IN STORAGE =       -2.0046E-02
       RECHARGE TO GW =     35369284.0000         RECHARGE TO GW =        2.0046E-02

             TOTAL IN =     35583000.0000               TOTAL IN =        2.0046E-02

            TOTAL OUT =     35582808.0000              TOTAL OUT =        2.0046E-02

             IN - OUT =          192.0000               IN - OUT =            0.0000

  PERCENT DISCREPANCY =            0.00      PERCENT DISCREPANCY =             0.00



1
  VOLUMETRIC BUDGET FOR ENTIRE MODEL AT END OF TIME STEP 30 IN STRESS PERIOD  49
  ------------------------------------------------------------------------------

     CUMULATIVE VOLUMES      L**3       RATES FOR THIS TIME STEP      L**3/T
     ------------------                 ------------------------

           IN:                                      IN:
           ---                                      ---
             STORAGE =    17838620.0000               STORAGE =           0.1680
       CONSTANT HEAD =           0.0000         CONSTANT HEAD =           0.0000
     HEAD DEP BOUNDS =           0.0000       HEAD DEP BOUNDS =           0.0000
      STREAM LEAKAGE =    35368816.0000        STREAM LEAKAGE =       2.0046E-02

            TOTAL IN =    53207436.0000              TOTAL IN =           0.1881

          OUT:                                     OUT:
          ----                                     ----
             STORAGE =    17082732.0000               STORAGE =           0.0000
       CONSTANT HEAD =           0.0000         CONSTANT HEAD =           0.0000
     HEAD DEP BOUNDS =    36123476.0000       HEAD DEP BOUNDS =           0.1881
      STREAM LEAKAGE =           0.0000        STREAM LEAKAGE =           0.0000

           TOTAL OUT =    53206208.0000             TOTAL OUT =           0.1881

            IN - OUT =        1228.0000              IN - OUT =       1.9625E-05

 PERCENT DISCREPANCY =           0.00     PERCENT DISCREPANCY =           0.01






          TIME SUMMARY AT END OF TIME STEP  30 IN STRESS PERIOD   49
                    SECONDS     MINUTES      HOURS       DAYS        YEARS
                    -----------------------------------------------------------
   TIME STEP LENGTH 2.49961E+05  4166.0      69.434      2.8931     7.92080E-03
 STRESS PERIOD TIME 2.59200E+06  43200.      720.00      30.000     8.21355E-02
         TOTAL TIME 1.27008E+08 2.11680E+06  35280.      1470.0      4.0246    
1
1
                            STRESS PERIOD NO.   50, LENGTH =   2592000.    
                            -----------------------------------------------

                              NUMBER OF TIME STEPS =    30

                               MULTIPLIER FOR DELT =     1.100

                            INITIAL TIME STEP SIZE =   15757.40    

 REUSING NON-PARAMETER GHB CELLS FROM LAST STRESS PERIOD

      7 GHB CELLS



 CLASSIFICATION & COUNT OF STREAM SEGMENTS BASED ON SOURCE OF INFLOW:

                HEADWATER     DIVERSION     RECEIVES TRIBUTARY FLOW
                ---------     ---------     -----------------------
                     1              0               0



                    INPUT DATA FOR EACH STREAM SEGMENT
 ---------------------------------------------------------------------------------------------

 SEGMENT    SEG.     INFLOW   OVERLAND   STREAM    STREAM   ICALC  OUTFLOW  DIVERSION PRIORITY
    NO.    LENGTH     RATE     RUNOFF      ET       PPT.    METH.  TO SEG.  FROM SEG.    NO.

      1  2.000E+04 9.000E-01 0.000E+00 0.000E+00 0.000E+00    2        0        0        0


         STREAMBED PROPERTIES AND STREAM DIMENSIONS

 SEGMENT     BED HYD. COND.      BED THICKNESS     ELEV.-TOP OF BED     WIDTH OF STREAM     DEPTH OF STREAM    STREAM ROUGHNESS
    No.     UPPER     LOWER     UPPER     LOWER     UPPER     LOWER     UPPER     LOWER     UPPER     LOWER   CHANNEL      BANK

     1  3.500E-07 3.500E-07                                                                                 3.000E-02 4.000E-02

  EIGHT POINT CROSS-SECTION DATA FOR SEGMENTS WITH ICALC = 2
    X VALUES X VALUES START FROM LEFT SIDE LOOKING DOWNSTREAM

     SEGMENT NO.        X1        X2        X3        X4        X5        X6        X7        X8
            1      0.000E+00 2.000E+00 4.000E+00 6.000E+00 8.000E+00 1.000E+01 1.200E+01 1.400E+01

    Z VALUES ARE RELATIVE TO STREAMBED ELEVATION

     SEGMENT NO.          Z1        Z2        Z3        Z4        Z5        Z6        Z7        Z8
            1      6.000E+00 4.500E+00 3.500E+00 0.000E+00 3.000E-01 3.500E+00 4.500E+00 6.000E+00



 
 SOLVING FOR HEAD 

 NO OUTPUT CONTROL FOR STRESS PERIOD   50   TIME STEP   1
 
 SOLVING FOR HEAD 

 NO OUTPUT CONTROL FOR STRESS PERIOD   50   TIME STEP   2
 
 SOLVING FOR HEAD 

 NO OUTPUT CONTROL FOR STRESS PERIOD   50   TIME STEP   3
 
 SOLVING FOR HEAD 

 NO OUTPUT CONTROL FOR STRESS PERIOD   50   TIME STEP   4
 
 SOLVING FOR HEAD 

 NO OUTPUT CONTROL FOR STRESS PERIOD   50   TIME STEP   5
 
 SOLVING FOR HEAD 

 NO OUTPUT CONTROL FOR STRESS PERIOD   50   TIME STEP   6
 
 SOLVING FOR HEAD 

 NO OUTPUT CONTROL FOR STRESS PERIOD   50   TIME STEP   7
 
 SOLVING FOR HEAD 

 NO OUTPUT CONTROL FOR STRESS PERIOD   50   TIME STEP   8
 
 SOLVING FOR HEAD 

 NO OUTPUT CONTROL FOR STRESS PERIOD   50   TIME STEP   9
 
 SOLVING FOR HEAD 

 NO OUTPUT CONTROL FOR STRESS PERIOD   50   TIME STEP  10
 
 SOLVING FOR HEAD 

 NO OUTPUT CONTROL FOR STRESS PERIOD   50   TIME STEP  11
 
 SOLVING FOR HEAD 

 NO OUTPUT CONTROL FOR STRESS PERIOD   50   TIME STEP  12
 
 SOLVING FOR HEAD 

 NO OUTPUT CONTROL FOR STRESS PERIOD   50   TIME STEP  13
 
 SOLVING FOR HEAD 

 NO OUTPUT CONTROL FOR STRESS PERIOD   50   TIME STEP  14
 
 SOLVING FOR HEAD 

 NO OUTPUT CONTROL FOR STRESS PERIOD   50   TIME STEP  15
 
 SOLVING FOR HEAD 

 NO OUTPUT CONTROL FOR STRESS PERIOD   50   TIME STEP  16
 
 SOLVING FOR HEAD 

 NO OUTPUT CONTROL FOR STRESS PERIOD   50   TIME STEP  17
 
 SOLVING FOR HEAD 

 NO OUTPUT CONTROL FOR STRESS PERIOD   50   TIME STEP  18
 
 SOLVING FOR HEAD 

 NO OUTPUT CONTROL FOR STRESS PERIOD   50   TIME STEP  19
 
 SOLVING FOR HEAD 

 NO OUTPUT CONTROL FOR STRESS PERIOD   50   TIME STEP  20
 
 SOLVING FOR HEAD 

 NO OUTPUT CONTROL FOR STRESS PERIOD   50   TIME STEP  21
 
 SOLVING FOR HEAD 

 NO OUTPUT CONTROL FOR STRESS PERIOD   50   TIME STEP  22
 
 SOLVING FOR HEAD 

 NO OUTPUT CONTROL FOR STRESS PERIOD   50   TIME STEP  23
 
 SOLVING FOR HEAD 

 NO OUTPUT CONTROL FOR STRESS PERIOD   50   TIME STEP  24
 
 SOLVING FOR HEAD 

 NO OUTPUT CONTROL FOR STRESS PERIOD   50   TIME STEP  25
 
 SOLVING FOR HEAD 

 NO OUTPUT CONTROL FOR STRESS PERIOD   50   TIME STEP  26
 
 SOLVING FOR HEAD 

 NO OUTPUT CONTROL FOR STRESS PERIOD   50   TIME STEP  27
 
 SOLVING FOR HEAD 

 NO OUTPUT CONTROL FOR STRESS PERIOD   50   TIME STEP  28
 
 SOLVING FOR HEAD 

 NO OUTPUT CONTROL FOR STRESS PERIOD   50   TIME STEP  29
 
 SOLVING FOR HEAD 

 OUTPUT CONTROL FOR STRESS PERIOD   50   TIME STEP  30
    PRINT HEAD FOR ALL LAYERS
    PRINT BUDGET
    SAVE BUDGET

  HEAD DEP BOUNDS   PERIOD   50   STEP  30
 BOUNDARY      1   LAYER   1   ROW     1   COL   100   RATE   -2.738787E-02
 BOUNDARY      2   LAYER   1   ROW     2   COL   100   RATE   -2.738206E-02
 BOUNDARY      3   LAYER   1   ROW     3   COL   100   RATE   -2.709704E-02
 BOUNDARY      4   LAYER   1   ROW     4   COL   100   RATE   -1.908677E-02
 BOUNDARY      5   LAYER   1   ROW     5   COL   100   RATE   -2.709704E-02
 BOUNDARY      6   LAYER   1   ROW     6   COL   100   RATE   -2.738206E-02
 BOUNDARY      7   LAYER   1   ROW     7   COL   100   RATE   -2.738787E-02



 STREAM LISTING     PERIOD     50   STEP       30

 LAYER ROW COL. STREAM  RCH.   FLOW INTO    STREAM     FLOW OUT OF   OVRLND.    DIRECT     STREAM      STREAM      STREAM     STREAM  STREAMBED   FLOW TO   CHNG. UNSAT. 
                SEG.NO.  NO.   STRM. RCH.    LOSS       STRM. RCH.   RUNOFF     PRECIP       ET         HEAD        DEPTH      WIDTH  CONDCTNC.   WAT. TAB.   STORAGE

   1    4    1     1     1    9.0000E-01  5.5751E-04   8.9944E-01  0.000E+00  0.000E+00  0.000E+00  1.40554E+02  7.036E-01  2.654E+00  4.632E-04  1.349E-04  4.226E-04
   1    4    2     1     2    8.9944E-01  5.5733E-04   8.9889E-01  0.000E+00  0.000E+00  0.000E+00  1.40253E+02  7.034E-01  2.654E+00  4.631E-04  1.349E-04  4.225E-04
   1    4    3     1     3    8.9889E-01  5.5714E-04   8.9833E-01  0.000E+00  0.000E+00  0.000E+00  1.39953E+02  7.032E-01  2.654E+00  4.631E-04  1.348E-04  4.224E-04
   1    4    4     1     4    8.9833E-01  5.5696E-04   8.9777E-01  0.000E+00  0.000E+00  0.000E+00  1.39653E+02  7.029E-01  2.654E+00  4.630E-04  1.347E-04  4.223E-04
   1    4    5     1     5    8.9777E-01  5.5678E-04   8.9721E-01  0.000E+00  0.000E+00  0.000E+00  1.39353E+02  7.027E-01  2.653E+00  4.629E-04  1.346E-04  4.221E-04
   1    4    6     1     6    8.9721E-01  5.5660E-04   8.9666E-01  0.000E+00  0.000E+00  0.000E+00  1.39053E+02  7.025E-01  2.653E+00  4.629E-04  1.345E-04  4.221E-04
   1    4    7     1     7    8.9666E-01  5.5642E-04   8.9610E-01  0.000E+00  0.000E+00  0.000E+00  1.38752E+02  7.023E-01  2.653E+00  4.628E-04  1.330E-04  4.234E-04
   1    4    8     1     8    8.9610E-01  5.5624E-04   8.9555E-01  0.000E+00  0.000E+00  0.000E+00  1.38452E+02  7.021E-01  2.653E+00  4.627E-04  1.109E-04  4.454E-04
   1    4    9     1     9    8.9555E-01  5.5606E-04   8.9499E-01  0.000E+00  0.000E+00  0.000E+00  1.38152E+02  7.019E-01  2.652E+00  4.627E-04  8.919E-05  4.669E-04
   1    4   10     1    10    8.9499E-01  5.5588E-04   8.9443E-01  0.000E+00  0.000E+00  0.000E+00  1.37852E+02  7.017E-01  2.652E+00  4.626E-04  6.806E-05  4.878E-04
   1    4   11     1    11    8.9443E-01  5.5570E-04   8.9388E-01  0.000E+00  0.000E+00  0.000E+00  1.37551E+02  7.015E-01  2.652E+00  4.625E-04  4.748E-05  5.082E-04
   1    4   12     1    12    8.9388E-01  5.5552E-04   8.9332E-01  0.000E+00  0.000E+00  0.000E+00  1.37251E+02  7.013E-01  2.651E+00  4.625E-04  4.143E-05  5.141E-04
   1    4   13     1    13    8.9332E-01  5.5534E-04   8.9277E-01  0.000E+00  0.000E+00  0.000E+00  1.36951E+02  7.010E-01  2.651E+00  4.624E-04  8.846E-05  4.669E-04
   1    4   14     1    14    8.9277E-01  5.5516E-04   8.9221E-01  0.000E+00  0.000E+00  0.000E+00  1.36651E+02  7.008E-01  2.651E+00  4.623E-04  1.396E-04  4.156E-04
   1    4   15     1    15    8.9221E-01  5.5498E-04   8.9166E-01  0.000E+00  0.000E+00  0.000E+00  1.36351E+02  7.006E-01  2.651E+00  4.622E-04  1.893E-04  3.657E-04
   1    4   16     1    16    8.9166E-01  5.5480E-04   8.9110E-01  0.000E+00  0.000E+00  0.000E+00  1.36050E+02  7.004E-01  2.650E+00  4.622E-04  2.376E-04  3.172E-04
   1    4   17     1    17    8.9110E-01  5.5462E-04   8.9055E-01  0.000E+00  0.000E+00  0.000E+00  1.35750E+02  7.002E-01  2.650E+00  4.621E-04  2.844E-04  2.703E-04
   1    4   18     1    18    8.9055E-01  5.5444E-04   8.8999E-01  0.000E+00  0.000E+00  0.000E+00  1.35450E+02  7.000E-01  2.650E+00  4.620E-04  3.297E-04  2.248E-04
   1    4   19     1    19    8.8999E-01  5.5426E-04   8.8944E-01  0.000E+00  0.000E+00  0.000E+00  1.35150E+02  6.998E-01  2.650E+00  4.620E-04  3.735E-04  1.807E-04
   1    4   20     1    20    8.8944E-01  5.5408E-04   8.8888E-01  0.000E+00  0.000E+00  0.000E+00  1.34850E+02  6.996E-01  2.649E+00  4.619E-04  4.159E-04  1.382E-04
   1    4   21     1    21    8.8888E-01  5.5390E-04   8.8833E-01  0.000E+00  0.000E+00  0.000E+00  1.34549E+02  6.994E-01  2.649E+00  4.618E-04  4.567E-04  9.722E-05
   1    4   22     1    22    8.8833E-01  5.5372E-04   8.8778E-01  0.000E+00  0.000E+00  0.000E+00  1.34249E+02  6.991E-01  2.649E+00  4.618E-04  4.960E-04  5.775E-05
   1    4   23     1    23    8.8778E-01  5.5354E-04   8.8722E-01  0.000E+00  0.000E+00  0.000E+00  1.33949E+02  6.989E-01  2.649E+00  4.617E-04  5.337E-04  1.983E-05
   1    4   24     1    24    8.8722E-01  5.5336E-04   8.8667E-01  0.000E+00  0.000E+00  0.000E+00  1.33649E+02  6.987E-01  2.648E+00  4.616E-04  5.552E-04 -1.869E-06
   1    4   25     1    25    8.8667E-01  5.5318E-04   8.8612E-01  0.000E+00  0.000E+00  0.000E+00  1.33349E+02  6.985E-01  2.648E+00  4.616E-04  5.549E-04 -1.761E-06
   1    4   26     1    26    8.8612E-01  5.5300E-04   8.8556E-01  0.000E+00  0.000E+00  0.000E+00  1.33048E+02  6.983E-01  2.648E+00  4.615E-04  5.546E-04 -1.611E-06
   1    4   27     1    27    8.8556E-01  5.5282E-04   8.8501E-01  0.000E+00  0.000E+00  0.000E+00  1.32748E+02  6.981E-01  2.648E+00  4.614E-04  5.543E-04 -1.447E-06
   1    4   28     1    28    8.8501E-01  5.5264E-04   8.8446E-01  0.000E+00  0.000E+00  0.000E+00  1.32448E+02  6.979E-01  2.647E+00  4.613E-04  5.539E-04 -1.278E-06
   1    4   29     1    29    8.8446E-01  5.5246E-04   8.8391E-01  0.000E+00  0.000E+00  0.000E+00  1.32148E+02  6.977E-01  2.647E+00  4.613E-04  5.536E-04 -1.110E-06
   1    4   30     1    30    8.8391E-01  5.5228E-04   8.8335E-01  0.000E+00  0.000E+00  0.000E+00  1.31847E+02  6.975E-01  2.647E+00  4.612E-04  5.532E-04 -9.428E-07
   1    4   31     1    31    8.8335E-01  5.5210E-04   8.8280E-01  0.000E+00  0.000E+00  0.000E+00  1.31547E+02  6.972E-01  2.647E+00  4.611E-04  5.529E-04 -7.779E-07
   1    4   32     1    32    8.8280E-01  5.5192E-04   8.8225E-01  0.000E+00  0.000E+00  0.000E+00  1.31247E+02  6.970E-01  2.646E+00  4.611E-04  5.525E-04 -6.165E-07
   1    4   33     1    33    8.8225E-01  5.5174E-04   8.8170E-01  0.000E+00  0.000E+00  0.000E+00  1.30947E+02  6.968E-01  2.646E+00  4.610E-04  5.522E-04 -4.574E-07
   1    4   34     1    34    8.8170E-01  5.5156E-04   8.8115E-01  0.000E+00  0.000E+00  0.000E+00  1.30647E+02  6.966E-01  2.646E+00  4.609E-04  5.519E-04 -3.007E-07
   1    4   35     1    35    8.8115E-01  5.5138E-04   8.8059E-01  0.000E+00  0.000E+00  0.000E+00  1.30346E+02  6.964E-01  2.646E+00  4.609E-04  5.515E-04 -1.478E-07
   1    4   36     1    36    8.8059E-01  5.5121E-04   8.8004E-01  0.000E+00  0.000E+00  0.000E+00  1.30046E+02  6.962E-01  2.645E+00  4.608E-04  5.512E-04  2.238E-09
   1    4   37     1    37    8.8004E-01  5.5103E-04   8.7949E-01  0.000E+00  0.000E+00  0.000E+00  1.29746E+02  6.960E-01  2.645E+00  4.607E-04  5.509E-04  1.485E-07
   1    4   38     1    38    8.7949E-01  5.5085E-04   8.7894E-01  0.000E+00  0.000E+00  0.000E+00  1.29446E+02  6.958E-01  2.645E+00  4.607E-04  5.506E-04  2.911E-07
   1    4   39     1    39    8.7894E-01  5.5067E-04   8.7839E-01  0.000E+00  0.000E+00  0.000E+00  1.29146E+02  6.956E-01  2.645E+00  4.606E-04  5.502E-04  4.304E-07
   1    4   40     1    40    8.7839E-01  5.5049E-04   8.7784E-01  0.000E+00  0.000E+00  0.000E+00  1.28845E+02  6.954E-01  2.644E+00  4.605E-04  5.499E-04  5.661E-07
   1    4   41     1    41    8.7784E-01  5.5031E-04   8.7729E-01  0.000E+00  0.000E+00  0.000E+00  1.28545E+02  6.951E-01  2.644E+00  4.605E-04  5.496E-04  6.970E-07
   1    4   42     1    42    8.7729E-01  5.5013E-04   8.7674E-01  0.000E+00  0.000E+00  0.000E+00  1.28245E+02  6.949E-01  2.644E+00  4.604E-04  5.493E-04  8.238E-07
   1    4   43     1    43    8.7674E-01  5.4995E-04   8.7619E-01  0.000E+00  0.000E+00  0.000E+00  1.27945E+02  6.947E-01  2.644E+00  4.603E-04  5.490E-04  9.461E-07
   1    4   44     1    44    8.7619E-01  5.4977E-04   8.7564E-01  0.000E+00  0.000E+00  0.000E+00  1.27645E+02  6.945E-01  2.643E+00  4.602E-04  5.487E-04  1.063E-06
   1    4   45     1    45    8.7564E-01  5.4959E-04   8.7509E-01  0.000E+00  0.000E+00  0.000E+00  1.27344E+02  6.943E-01  2.643E+00  4.602E-04  5.484E-04  1.175E-06
   1    4   46     1    46    8.7509E-01  5.4941E-04   8.7454E-01  0.000E+00  0.000E+00  0.000E+00  1.27044E+02  6.941E-01  2.643E+00  4.601E-04  5.481E-04  1.361E-06
   1    4   47     1    47    8.7454E-01  5.4924E-04   8.7399E-01  0.000E+00  0.000E+00  0.000E+00  1.26744E+02  6.939E-01  2.643E+00  4.600E-04  5.476E-04  1.610E-06
   1    4   48     1    48    8.7399E-01  5.4906E-04   8.7344E-01  0.000E+00  0.000E+00  0.000E+00  1.26444E+02  6.937E-01  2.642E+00  4.600E-04  5.473E-04  1.780E-06
   1    4   49     1    49    8.7344E-01  5.4888E-04   8.7289E-01  0.000E+00  0.000E+00  0.000E+00  1.26143E+02  6.935E-01  2.642E+00  4.599E-04  5.470E-04  1.860E-06
   1    4   50     1    50    8.7289E-01  5.4870E-04   8.7234E-01  0.000E+00  0.000E+00  0.000E+00  1.25843E+02  6.932E-01  2.642E+00  4.598E-04  5.468E-04  1.934E-06
   1    4   51     1    51    8.7234E-01  5.4852E-04   8.7180E-01  0.000E+00  0.000E+00  0.000E+00  1.25543E+02  6.930E-01  2.642E+00  4.598E-04  5.465E-04  2.002E-06
   1    4   52     1    52    8.7180E-01  5.4834E-04   8.7125E-01  0.000E+00  0.000E+00  0.000E+00  1.25243E+02  6.928E-01  2.641E+00  4.597E-04  5.463E-04  2.063E-06
   1    4   53     1    53    8.7125E-01  5.4816E-04   8.7070E-01  0.000E+00  0.000E+00  0.000E+00  1.24943E+02  6.926E-01  2.641E+00  4.596E-04  5.460E-04  2.118E-06
   1    4   54     1    54    8.7070E-01  5.4798E-04   8.7015E-01  0.000E+00  0.000E+00  0.000E+00  1.24642E+02  6.924E-01  2.641E+00  4.596E-04  5.458E-04  2.165E-06
   1    4   55     1    55    8.7015E-01  5.4781E-04   8.6960E-01  0.000E+00  0.000E+00  0.000E+00  1.24342E+02  6.922E-01  2.641E+00  4.595E-04  5.456E-04  2.206E-06
   1    4   56     1    56    8.6960E-01  5.4763E-04   8.6906E-01  0.000E+00  0.000E+00  0.000E+00  1.24042E+02  6.920E-01  2.640E+00  4.594E-04  5.454E-04  2.239E-06
   1    4   57     1    57    8.6906E-01  5.4745E-04   8.6851E-01  0.000E+00  0.000E+00  0.000E+00  1.23742E+02  6.918E-01  2.640E+00  4.594E-04  5.452E-04  2.263E-06
   1    4   58     1    58    8.6851E-01  5.4727E-04   8.6796E-01  0.000E+00  0.000E+00  0.000E+00  1.23442E+02  6.916E-01  2.640E+00  4.593E-04  5.450E-04  2.279E-06
   1    4   59     1    59    8.6796E-01  5.4709E-04   8.6741E-01  0.000E+00  0.000E+00  0.000E+00  1.23141E+02  6.914E-01  2.640E+00  4.592E-04  5.448E-04  2.286E-06
   1    4   60     1    60    8.6741E-01  5.4691E-04   8.6687E-01  0.000E+00  0.000E+00  0.000E+00  1.22841E+02  6.911E-01  2.639E+00  4.592E-04  5.446E-04  2.285E-06
   1    4   61     1    61    8.6687E-01  5.4674E-04   8.6632E-01  0.000E+00  0.000E+00  0.000E+00  1.22541E+02  6.909E-01  2.639E+00  4.591E-04  5.445E-04  2.281E-06
   1    4   62     1    62    8.6632E-01  5.4656E-04   8.6577E-01  0.000E+00  0.000E+00  0.000E+00  1.22241E+02  6.907E-01  2.639E+00  4.590E-04  5.443E-04  2.285E-06
   1    4   63     1    63    8.6577E-01  5.4638E-04   8.6523E-01  0.000E+00  0.000E+00  0.000E+00  1.21941E+02  6.905E-01  2.639E+00  4.589E-04  5.440E-04  2.333E-06
   1    4   64     1    64    8.6523E-01  5.4620E-04   8.6468E-01  0.000E+00  0.000E+00  0.000E+00  1.21640E+02  6.903E-01  2.638E+00  4.589E-04  5.088E-04  3.745E-05
   1    4   65     1    65    8.6468E-01  5.4602E-04   8.6414E-01  0.000E+00  0.000E+00  0.000E+00  1.21340E+02  6.901E-01  2.638E+00  4.588E-04  4.619E-04  8.417E-05
   1    4   66     1    66    8.6414E-01  5.4585E-04   8.6359E-01  0.000E+00  0.000E+00  0.000E+00  1.21040E+02  6.899E-01  2.638E+00  4.587E-04  4.123E-04  1.336E-04
   1    4   67     1    67    8.6359E-01  5.4567E-04   8.6304E-01  0.000E+00  0.000E+00  0.000E+00  1.20740E+02  6.897E-01  2.638E+00  4.587E-04  3.599E-04  1.857E-04
   1    4   68     1    68    8.6304E-01  5.4549E-04   8.6250E-01  0.000E+00  0.000E+00  0.000E+00  1.20439E+02  6.895E-01  2.637E+00  4.586E-04  3.048E-04  2.406E-04
   1    4   69     1    69    8.6250E-01  5.4531E-04   8.6195E-01  0.000E+00  0.000E+00  0.000E+00  1.20139E+02  6.892E-01  2.637E+00  4.585E-04  2.470E-04  2.983E-04
   1    4   70     1    70    8.6195E-01  5.4513E-04   8.6141E-01  0.000E+00  0.000E+00  0.000E+00  1.19839E+02  6.890E-01  2.637E+00  4.585E-04  1.862E-04  3.589E-04
   1    4   71     1    71    8.6141E-01  5.4496E-04   8.6086E-01  0.000E+00  0.000E+00  0.000E+00  1.19539E+02  6.888E-01  2.637E+00  4.584E-04  1.226E-04  4.223E-04
   1    4   72     1    72    8.6086E-01  5.4478E-04   8.6032E-01  0.000E+00  0.000E+00  0.000E+00  1.19239E+02  6.886E-01  2.636E+00  4.583E-04  5.615E-05  4.886E-04
   1    4   73     1    73    8.6032E-01  5.4460E-04   8.5977E-01  0.000E+00  0.000E+00  0.000E+00  1.18938E+02  6.884E-01  2.636E+00  4.583E-04  3.716E-05  5.074E-04
   1    4   74     1    74    8.5977E-01  5.4442E-04   8.5923E-01  0.000E+00  0.000E+00  0.000E+00  1.18638E+02  6.882E-01  2.636E+00  4.582E-04  6.238E-05  4.820E-04
   1    4   75     1    75    8.5923E-01  5.4424E-04   8.5869E-01  0.000E+00  0.000E+00  0.000E+00  1.18338E+02  6.880E-01  2.636E+00  4.581E-04  9.031E-05  4.539E-04
   1    4   76     1    76    8.5869E-01  5.4407E-04   8.5814E-01  0.000E+00  0.000E+00  0.000E+00  1.18038E+02  6.878E-01  2.635E+00  4.581E-04  1.194E-04  4.247E-04
   1    4   77     1    77    8.5814E-01  5.4389E-04   8.5760E-01  0.000E+00  0.000E+00  0.000E+00  1.17738E+02  6.876E-01  2.635E+00  4.580E-04  1.278E-04  4.161E-04
   1    4   78     1    78    8.5760E-01  5.4371E-04   8.5705E-01  0.000E+00  0.000E+00  0.000E+00  1.17437E+02  6.874E-01  2.635E+00  4.579E-04  1.279E-04  4.158E-04
   1    4   79     1    79    8.5705E-01  5.4353E-04   8.5651E-01  0.000E+00  0.000E+00  0.000E+00  1.17137E+02  6.871E-01  2.635E+00  4.578E-04  1.327E-04  4.108E-04
   1    4   80     1    80    8.5651E-01  5.4336E-04   8.5597E-01  0.000E+00  0.000E+00  0.000E+00  1.16837E+02  6.869E-01  2.634E+00  4.578E-04  1.327E-04  4.106E-04
   1    4   81     1    81    8.5597E-01  5.4318E-04   8.5542E-01  0.000E+00  0.000E+00  0.000E+00  1.16537E+02  6.867E-01  2.634E+00  4.577E-04  1.328E-04  4.104E-04
   1    4   82     1    82    8.5542E-01  5.4300E-04   8.5488E-01  0.000E+00  0.000E+00  0.000E+00  1.16237E+02  6.865E-01  2.634E+00  4.576E-04  1.490E-04  3.940E-04
   1    4   83     1    83    8.5488E-01  5.4282E-04   8.5434E-01  0.000E+00  0.000E+00  0.000E+00  1.15936E+02  6.863E-01  2.634E+00  4.576E-04  1.491E-04  3.937E-04
   1    4   84     1    84    8.5434E-01  5.4265E-04   8.5379E-01  0.000E+00  0.000E+00  0.000E+00  1.15636E+02  6.861E-01  2.633E+00  4.575E-04  1.492E-04  3.935E-04
   1    4   85     1    85    8.5379E-01  5.4247E-04   8.5325E-01  0.000E+00  0.000E+00  0.000E+00  1.15336E+02  6.859E-01  2.633E+00  4.574E-04  1.493E-04  3.932E-04
   1    4   86     1    86    8.5325E-01  5.4229E-04   8.5271E-01  0.000E+00  0.000E+00  0.000E+00  1.15036E+02  6.857E-01  2.633E+00  4.574E-04  1.494E-04  3.929E-04
   1    4   87     1    87    8.5271E-01  5.4212E-04   8.5217E-01  0.000E+00  0.000E+00  0.000E+00  1.14735E+02  6.855E-01  2.633E+00  4.573E-04  1.496E-04  3.925E-04
   1    4   88     1    88    8.5217E-01  5.4194E-04   8.5163E-01  0.000E+00  0.000E+00  0.000E+00  1.14435E+02  6.853E-01  2.632E+00  4.572E-04  1.499E-04  3.921E-04
   1    4   89     1    89    8.5163E-01  5.4176E-04   8.5108E-01  0.000E+00  0.000E+00  0.000E+00  1.14135E+02  6.850E-01  2.632E+00  4.572E-04  1.502E-04  3.916E-04
   1    4   90     1    90    8.5108E-01  5.4158E-04   8.5054E-01  0.000E+00  0.000E+00  0.000E+00  1.13835E+02  6.848E-01  2.632E+00  4.571E-04  1.505E-04  3.911E-04
   1    4   91     1    91    8.5054E-01  5.4141E-04   8.5000E-01  0.000E+00  0.000E+00  0.000E+00  1.13535E+02  6.846E-01  2.632E+00  4.570E-04  1.509E-04  3.905E-04
   1    4   92     1    92    8.5000E-01  5.4123E-04   8.4946E-01  0.000E+00  0.000E+00  0.000E+00  1.13234E+02  6.844E-01  2.631E+00  4.570E-04  1.513E-04  3.899E-04
   1    4   93     1    93    8.4946E-01  5.4105E-04   8.4892E-01  0.000E+00  0.000E+00  0.000E+00  1.12934E+02  6.842E-01  2.631E+00  4.569E-04  1.519E-04  3.892E-04
   1    4   94     1    94    8.4892E-01  5.4088E-04   8.4838E-01  0.000E+00  0.000E+00  0.000E+00  1.12634E+02  6.840E-01  2.631E+00  4.568E-04  1.525E-04  3.884E-04
   1    4   95     1    95    8.4838E-01  5.4070E-04   8.4784E-01  0.000E+00  0.000E+00  0.000E+00  1.12334E+02  6.838E-01  2.631E+00  4.568E-04  1.532E-04  3.875E-04
   1    4   96     1    96    8.4784E-01  5.4052E-04   8.4730E-01  0.000E+00  0.000E+00  0.000E+00  1.12034E+02  6.836E-01  2.630E+00  4.567E-04  1.540E-04  3.865E-04
   1    4   97     1    97    8.4730E-01  5.4035E-04   8.4676E-01  0.000E+00  0.000E+00  0.000E+00  1.11733E+02  6.834E-01  2.630E+00  4.566E-04  1.549E-04  3.855E-04
   1    4   98     1    98    8.4676E-01  5.4017E-04   8.4622E-01  0.000E+00  0.000E+00  0.000E+00  1.11433E+02  6.832E-01  2.630E+00  4.565E-04  1.559E-04  3.843E-04
   1    4   99     1    99    8.4622E-01  5.3999E-04   8.4568E-01  0.000E+00  0.000E+00  0.000E+00  1.11133E+02  6.830E-01  2.630E+00  4.565E-04  1.618E-04  3.782E-04
   1    4  100     1   100    8.4568E-01  5.3982E-04   8.4514E-01  0.000E+00  0.000E+00  0.000E+00  1.10833E+02  6.827E-01  2.629E+00  4.564E-04  1.643E-04  3.755E-04



1
  VOLUMETRIC BUDGET FOR UNSATURATED ZONE BENEATH STREAMS AT END OF TIME STEP  30 STRESS PERIOD  50
  ------------------------------------------------------------------------------------------------

    CUMULATIVE VOLUMES             L**3    RATES FOR THIS TIME STEP         L**3/T
    ------------------                     ------------------------


          STREAM LOSS =     35725148.0000            STREAM LOSS =        5.4863E-02
    CHANGE IN STORAGE =       313944.9062      CHANGE IN STORAGE =        2.1537E-02
       RECHARGE TO GW =     35411520.0000         RECHARGE TO GW =        3.3326E-02

             TOTAL IN =     35725148.0000               TOTAL IN =        5.4863E-02

            TOTAL OUT =     35725464.0000              TOTAL OUT =        5.4863E-02

             IN - OUT =         -316.0000               IN - OUT =            0.0000

  PERCENT DISCREPANCY =            0.00      PERCENT DISCREPANCY =             0.00



1
              HEAD IN LAYER   1 AT END OF TIME STEP  30 IN STRESS PERIOD   50
  ---------------------------------------------------------------------------

          1      2      3      4      5      6      7      8      9     10
         11     12     13     14     15     16     17     18     19     20
         21     22     23     24     25     26     27     28     29     30
         31     32     33     34     35     36     37     38     39     40
         41     42     43     44     45     46     47     48     49     50
         51     52     53     54     55     56     57     58     59     60
         61     62     63     64     65     66     67     68     69     70
         71     72     73     74     75     76     77     78     79     80
         81     82     83     84     85     86     87     88     89     90
         91     92     93     94     95     96     97     98     99    100
 .........................................................................
   1   115.2  115.2  115.2  115.2  115.2  115.1  115.1  115.0  115.0  114.9
       114.9  114.8  114.7  114.7  114.6  114.5  114.4  114.3  114.2  114.1
       114.0  113.8  113.7  113.6  113.4  113.3  113.1  112.9  112.8  112.6
       112.4  112.2  112.0  111.8  111.6  111.3  111.1  110.9  110.6  110.4
       110.1  109.8  109.5  109.2  108.9  108.6  108.3  108.0  107.7  107.3
       107.0  106.6  106.2  105.9  105.5  105.1  104.7  104.3  103.8  103.4
       102.9  102.5  102.0  101.5  101.0  100.5  100.0   99.5   98.9   98.4
        97.8   97.2   96.6   96.0   95.4   94.8   94.1   93.5   92.8   92.1
        91.4   90.7   89.9   89.2   88.4   87.6   86.9   86.0   85.2   84.4
        83.5   82.6   81.7   80.8   79.9   78.9   78.0   77.0   76.0   75.0
   2   115.2  115.2  115.2  115.2  115.2  115.1  115.1  115.0  115.0  114.9
       114.9  114.8  114.7  114.7  114.6  114.5  114.4  114.3  114.2  114.1
       114.0  113.8  113.7  113.6  113.4  113.3  113.1  112.9  112.8  112.6
       112.4  112.2  112.0  111.8  111.6  111.3  111.1  110.9  110.6  110.4
       110.1  109.8  109.5  109.2  108.9  108.6  108.3  108.0  107.7  107.3
       107.0  106.6  106.2  105.9  105.5  105.1  104.7  104.3  103.8  103.4
       102.9  102.5  102.0  101.5  101.0  100.5  100.0   99.5   98.9   98.4
        97.8   97.2   96.6   96.0   95.4   94.8   94.1   93.5   92.8   92.1
        91.4   90.7   89.9   89.2   88.4   87.6   86.9   86.0   85.2   84.4
        83.5   82.6   81.7   80.8   79.9   78.9   78.0   77.0   76.0   75.0
   3   115.2  115.2  115.2  115.2  115.2  115.1  115.1  115.0  115.0  114.9
       114.9  114.8  114.7  114.7  114.6  114.5  114.4  114.3  114.2  114.1
       114.0  113.8  113.7  113.6  113.4  113.3  113.1  112.9  112.8  112.6
       112.4  112.2  112.0  111.8  111.6  111.3  111.1  110.9  110.6  110.4
       110.1  109.8  109.5  109.2  109.0  108.6  108.3  108.0  107.7  107.3
       107.0  106.6  106.2  105.9  105.5  105.1  104.7  104.3  103.8  103.4
       102.9  102.5  102.0  101.5  101.0  100.5  100.0   99.5   98.9   98.4
        97.8   97.2   96.6   96.0   95.4   94.8   94.1   93.5   92.8   92.1
        91.4   90.7   89.9   89.2   88.4   87.6   86.9   86.0   85.2   84.4
        83.5   82.6   81.7   80.8   79.9   78.9   78.0   77.0   76.0   75.0
   4   115.2  115.2  115.2  115.2  115.2  115.1  115.1  115.0  115.0  114.9
       114.9  114.8  114.7  114.7  114.6  114.5  114.4  114.3  114.2  114.1
       114.0  113.8  113.7  113.6  113.4  113.3  113.1  112.9  112.8  112.6
       112.4  112.2  112.0  111.8  111.6  111.3  111.1  110.9  110.6  110.4
       110.1  109.8  109.5  109.2  109.0  108.6  108.3  108.0  107.7  107.3
       107.0  106.6  106.3  105.9  105.5  105.1  104.7  104.3  103.8  103.4
       102.9  102.5  102.0  101.5  101.0  100.5  100.0   99.5   98.9   98.4
        97.8   97.2   96.6   96.0   95.4   94.8   94.1   93.5   92.8   92.1
        91.4   90.7   89.9   89.2   88.4   87.6   86.9   86.0   85.2   84.4
        83.5   82.6   81.7   80.8   79.9   78.9   78.0   77.0   76.0   75.0
   5   115.2  115.2  115.2  115.2  115.2  115.1  115.1  115.0  115.0  114.9
       114.9  114.8  114.7  114.7  114.6  114.5  114.4  114.3  114.2  114.1
       114.0  113.8  113.7  113.6  113.4  113.3  113.1  112.9  112.8  112.6
       112.4  112.2  112.0  111.8  111.6  111.3  111.1  110.9  110.6  110.4
       110.1  109.8  109.5  109.2  109.0  108.6  108.3  108.0  107.7  107.3
       107.0  106.6  106.2  105.9  105.5  105.1  104.7  104.3  103.8  103.4
       102.9  102.5  102.0  101.5  101.0  100.5  100.0   99.5   98.9   98.4
        97.8   97.2   96.6   96.0   95.4   94.8   94.1   93.5   92.8   92.1
        91.4   90.7   89.9   89.2   88.4   87.6   86.9   86.0   85.2   84.4
        83.5   82.6   81.7   80.8   79.9   78.9   78.0   77.0   76.0   75.0
   6   115.2  115.2  115.2  115.2  115.2  115.1  115.1  115.0  115.0  114.9
       114.9  114.8  114.7  114.7  114.6  114.5  114.4  114.3  114.2  114.1
       114.0  113.8  113.7  113.6  113.4  113.3  113.1  112.9  112.8  112.6
       112.4  112.2  112.0  111.8  111.6  111.3  111.1  110.9  110.6  110.4
       110.1  109.8  109.5  109.2  108.9  108.6  108.3  108.0  107.7  107.3
       107.0  106.6  106.2  105.9  105.5  105.1  104.7  104.3  103.8  103.4
       102.9  102.5  102.0  101.5  101.0  100.5  100.0   99.5   98.9   98.4
        97.8   97.2   96.6   96.0   95.4   94.8   94.1   93.5   92.8   92.1
        91.4   90.7   89.9   89.2   88.4   87.6   86.9   86.0   85.2   84.4
        83.5   82.6   81.7   80.8   79.9   78.9   78.0   77.0   76.0   75.0
   7   115.2  115.2  115.2  115.2  115.2  115.1  115.1  115.0  115.0  114.9
       114.9  114.8  114.7  114.7  114.6  114.5  114.4  114.3  114.2  114.1
       114.0  113.8  113.7  113.6  113.4  113.3  113.1  112.9  112.8  112.6
       112.4  112.2  112.0  111.8  111.6  111.3  111.1  110.9  110.6  110.4
       110.1  109.8  109.5  109.2  108.9  108.6  108.3  108.0  107.7  107.3
       107.0  106.6  106.2  105.9  105.5  105.1  104.7  104.3  103.8  103.4
       102.9  102.5  102.0  101.5  101.0  100.5  100.0   99.5   98.9   98.4
        97.8   97.2   96.6   96.0   95.4   94.8   94.1   93.5   92.8   92.1
        91.4   90.7   89.9   89.2   88.4   87.6   86.9   86.0   85.2   84.4
        83.5   82.6   81.7   80.8   79.9   78.9   78.0   77.0   76.0   75.0
1
  VOLUMETRIC BUDGET FOR ENTIRE MODEL AT END OF TIME STEP 30 IN STRESS PERIOD  50
  ------------------------------------------------------------------------------

     CUMULATIVE VOLUMES      L**3       RATES FOR THIS TIME STEP      L**3/T
     ------------------                 ------------------------

           IN:                                      IN:
           ---                                      ---
             STORAGE =    18276856.0000               STORAGE =           0.1495
       CONSTANT HEAD =           0.0000         CONSTANT HEAD =           0.0000
     HEAD DEP BOUNDS =           0.0000       HEAD DEP BOUNDS =           0.0000
      STREAM LEAKAGE =    35410604.0000        STREAM LEAKAGE =       3.3326E-02

            TOTAL IN =    53687460.0000              TOTAL IN =           0.1828

          OUT:                                     OUT:
          ----                                     ----
             STORAGE =    17082732.0000               STORAGE =           0.0000
       CONSTANT HEAD =           0.0000         CONSTANT HEAD =           0.0000
     HEAD DEP BOUNDS =    36603536.0000       HEAD DEP BOUNDS =           0.1828
      STREAM LEAKAGE =           0.0000        STREAM LEAKAGE =           0.0000

           TOTAL OUT =    53686268.0000             TOTAL OUT =           0.1828

            IN - OUT =        1192.0000              IN - OUT =       2.5168E-05

 PERCENT DISCREPANCY =           0.00     PERCENT DISCREPANCY =           0.01






          TIME SUMMARY AT END OF TIME STEP  30 IN STRESS PERIOD   50
                    SECONDS     MINUTES      HOURS       DAYS        YEARS
                    -----------------------------------------------------------
   TIME STEP LENGTH 2.49961E+05  4166.0      69.434      2.8931     7.92080E-03
 STRESS PERIOD TIME 2.59200E+06  43200.      720.00      30.000     8.21355E-02
         TOTAL TIME 1.29600E+08 2.16000E+06  36000.      1500.0      4.1068    
1

 Run end date and time (yyyy/mm/dd hh:mm:ss): 2007/07/25 12:40:38
 Elapsed run time:  1 Minutes,  1.236 Seconds

