                                  MODFLOW-2005     
      U.S. GEOLOGICAL SURVEY MODULAR FINITE-DIFFERENCE GROUND-WATER FLOW MODEL
                            VERSION 1.5.00 4/28/2008

 LIST FILE: tr2k_s3.lst
                         UNIT    2

 OPENING tr2k_s3.ba6
 FILE TYPE:BAS6   UNIT    1   STATUS:OLD    
 FORMAT:FORMATTED              ACCESS:SEQUENTIAL          

 OPENING tr2k_s3.dis
 FILE TYPE:DIS   UNIT   10   STATUS:OLD    
 FORMAT:FORMATTED              ACCESS:SEQUENTIAL          

 OPENING tr2k_s3.bc6
 FILE TYPE:BCF6   UNIT   11   STATUS:OLD    
 FORMAT:FORMATTED              ACCESS:SEQUENTIAL          

 OPENING tr2k_s3.wel
 FILE TYPE:WEL   UNIT   12   STATUS:OLD    
 FORMAT:FORMATTED              ACCESS:SEQUENTIAL          

 OPENING tr2k_s3.sip
 FILE TYPE:SIP   UNIT   13   STATUS:OLD    
 FORMAT:FORMATTED              ACCESS:SEQUENTIAL          

 OPENING tr2k_s3.oc
 FILE TYPE:OC   UNIT   15   STATUS:OLD    
 FORMAT:FORMATTED              ACCESS:SEQUENTIAL          

 OPENING tr2k_s3.sub
 FILE TYPE:SUB   UNIT   19   STATUS:OLD    
 FORMAT:FORMATTED              ACCESS:SEQUENTIAL          
#                                                                                                                                                                                                                                                                                                           
# Binary output files                                                                                                                                                                                                                                                                                       

 OPENING tr2k_s3.hed
 FILE TYPE:DATA(BINARY)   UNIT   21   STATUS:REPLACE
 FORMAT:BINARY                 ACCESS:SEQUENTIAL          

 OPENING tr2k_s3.ddn
 FILE TYPE:DATA(BINARY)   UNIT   22   STATUS:REPLACE
 FORMAT:BINARY                 ACCESS:SEQUENTIAL          

 OPENING tr2k_s3.sbs
 FILE TYPE:DATA(BINARY)   UNIT   41   STATUS:REPLACE
 FORMAT:BINARY                 ACCESS:SEQUENTIAL          

 OPENING tr2k_s3.cmp
 FILE TYPE:DATA(BINARY)   UNIT   42   STATUS:REPLACE
 FORMAT:BINARY                 ACCESS:SEQUENTIAL          

 BAS -- BASIC PACKAGE, VERSION 7, 5/2/2005 INPUT READ FROM UNIT    1

 DISCRETIZATION INPUT DATA READ FROM UNIT   10
    3 LAYERS        10 ROWS        10 COLUMNS
   31 STRESS PERIOD(S) IN SIMULATION
 MODEL TIME UNIT IS DAYS
 MODEL LENGTH UNIT IS UNDEFINED
  Confining bed flag for each layer:
   0   0   0

                     DELR =   1000.00    

                     DELC =   2000.00    

 TOP ELEVATION OF LAYER 1 =   0.00000    

   MODEL LAYER BOTTOM EL. =  -100.000     FOR LAYER   1

   MODEL LAYER BOTTOM EL. =  -150.000     FOR LAYER   2

   MODEL LAYER BOTTOM EL. =  -250.000     FOR LAYER   3


 STRESS PERIOD     LENGTH       TIME STEPS     MULTIPLIER FOR DELT    SS FLAG
 ----------------------------------------------------------------------------
        1         1.000000          1                    1.000         SS
        2         365.3000          6                    1.300         TR
        3         365.3000          6                    1.300         TR
        4         365.3000          6                    1.300         TR
        5         365.3000          6                    1.300         TR
        6         365.3000          6                    1.300         TR
        7         365.3000          6                    1.300         TR
        8         365.3000          6                    1.300         TR
        9         365.3000          6                    1.300         TR
       10         365.3000          6                    1.300         TR
       11         365.3000          6                    1.300         TR
       12         365.3000          6                    1.300         TR
       13         365.3000          6                    1.300         TR
       14         365.3000          6                    1.300         TR
       15         365.3000          6                    1.300         TR
       16         365.3000          6                    1.300         TR
       17         365.3000          6                    1.300         TR
       18         365.3000          6                    1.300         TR
       19         365.3000          6                    1.300         TR
       20         365.3000          6                    1.300         TR
       21         365.3000          6                    1.300         TR
       22         365.3000          6                    1.300         TR
       23         365.3000          6                    1.300         TR
       24         365.3000          6                    1.300         TR
       25         365.3000          6                    1.300         TR
       26         365.3000          6                    1.300         TR
       27         365.3000          6                    1.300         TR
       28         365.3000          6                    1.300         TR
       29         365.3000          6                    1.300         TR
       30         365.3000          6                    1.300         TR
       31         365.3000          6                    1.300         TR

 COMBINED STEADY-STATE AND TRANSIENT SIMULATION



 
 #Sample Problem 3                                                               
 #SUB1 documentation                                                             



                     BOUNDARY ARRAY FOR LAYER   1
 READING ON UNIT    1 WITH FORMAT: (20I4)              

        1   2   3   4   5   6   7   8   9  10
 ............................................
   1    3   3   1   1   1   1   1   1   3   3
   2    3   2   2   2   2   2   2   2   2   3
   3    3   2   2   2   2   5   5   2   2   3
   4    3   2   2   2   2   5   5   2   2   3
   5    1   2   2   2   2   2   2   2   2   1
   6    1   2   2   2   2   2   2   2   2   1
   7    1   2   2   2   2   2   2   2   2   1
   8    1   2   2   2   2   2   2   2   2   1
   9    1   2   2   2   2   2   2   2   2   1
  10    1   1   1  -4  -4  -4  -4   1   1   1

           BOUNDARY ARRAY =              1 FOR LAYER   2

           BOUNDARY ARRAY =              1 FOR LAYER   3

 AQUIFER HEAD WILL BE SET TO  999.00     AT ALL NO-FLOW NODES (IBOUND=0).

             INITIAL HEAD =   0.00000     FOR LAYER   1

             INITIAL HEAD =   0.00000     FOR LAYER   2

             INITIAL HEAD =   0.00000     FOR LAYER   3

 OUTPUT CONTROL IS SPECIFIED ONLY AT TIME STEPS FOR WHICH OUTPUT IS DESIRED
 IBOUND WILL BE SAVED ON UNIT   50
 HEAD PRINT FORMAT CODE IS   4    DRAWDOWN PRINT FORMAT CODE IS   5
 HEADS WILL BE SAVED ON UNIT   21    DRAWDOWNS WILL BE SAVED ON UNIT   22

 BCF -- BLOCK-CENTERED FLOW PACKAGE, VERSION 7, 5/2/2005
         INPUT READ FROM UNIT 11
 TRANSIENT SIMULATION
 HEAD AT CELLS THAT CONVERT TO DRY=   0.0000    
 WETTING CAPABILITY IS NOT ACTIVE
      LAYER  LAYER-TYPE CODE     INTERBLOCK T
      --------------------------------------------
         1            1          0 -- HARMONIC    
         2            0          0 -- HARMONIC    
         3            0          0 -- HARMONIC    

 COLUMN TO ROW ANISOTROPY =   1.00000    

     PRIMARY STORAGE COEF =  0.100000     FOR LAYER   1

    HYD. COND. ALONG ROWS =   20.0000     FOR LAYER   1

 VERT HYD COND /THICKNESS =  3.000000E-06 FOR LAYER   1

     PRIMARY STORAGE COEF =  6.560000E-05 FOR LAYER   2



               TRANSMIS. ALONG ROWS FOR LAYER   2
 READING ON UNIT   11 WITH FORMAT: (10F7.0)            

            1           2           3           4           5           6           7           8           9          10
 ........................................................................................................................
   1    1000.       1000.       1000.       1000.       1000.       1000.       1000.       1000.       1000.       1000.    
   2    1000.      0.5000      0.5000      0.5000      0.5000      0.5000      0.5000      0.5000      0.5000       1000.    
   3    1000.      0.5000      0.5000      0.5000      0.5000      0.5000      0.5000      0.5000      0.5000       1000.    
   4    1000.      0.5000      0.5000      0.5000      0.5000      0.5000      0.5000      0.5000      0.5000       1000.    
   5    1000.      0.5000      0.5000      0.5000      0.5000      0.5000      0.5000      0.5000      0.5000       1000.    
   6    1000.      0.5000      0.5000      0.5000      0.5000      0.5000      0.5000      0.5000      0.5000       1000.    
   7    1000.      0.5000      0.5000      0.5000      0.5000      0.5000      0.5000      0.5000      0.5000       1000.    
   8    1000.      0.5000      0.5000      0.5000      0.5000      0.5000      0.5000      0.5000      0.5000       1000.    
   9    1000.      0.5000      0.5000      0.5000      0.5000      0.5000      0.5000      0.5000      0.5000       1000.    
  10    1000.       1000.       1000.       1000.       1000.       1000.       1000.       1000.       1000.       1000.    

 VERT HYD COND /THICKNESS =  3.000000E-06 FOR LAYER   2

     PRIMARY STORAGE COEF =  2.620000E-04 FOR LAYER   3

     TRANSMIS. ALONG ROWS =   1000.00     FOR LAYER   3

 WEL -- WELL PACKAGE, VERSION 7, 5/2/2005 INPUT READ FROM UNIT   12
 No named parameters
 MAXIMUM OF     14 ACTIVE WELLS AT ONE TIME


     0 Well parameters

SUB7 -- SUBSIDENCE PACKAGE, VERSION 7, 03/31/2006 INPUT READ FROM UNIT 19

         NUMBER OF SYSTEMS OF NO-DELAYED INTERBEDS:  3
              NUMBER OF SYSTEMS OF DELAY INTERBEDS:  2
                          NUMBER OF MATERIAL ZONES:  1
                    NUMBER OF NODES IN EACH STRING: 20
 RESTART INFORMATION WILL NOT BE SAVED FOR DELAY INTERBEDS
 RESTART INFORMATION WILL NOT BE READ FOR DELAY INTERBEDS
 OUTPUT CONTROL RECORDS FOR SUB PACKAGE WILL BE READ EACH TIME STEP.

 MODEL LAYER ASSIGNMENTS FOR EACH OF  3 NO-DELAY SYSTEMS OF INTERBEDS:
    1   2   3

 MODEL LAYER ASSIGNMENTS FOR EACH OF  2 DELAY SYSTEMS OF INTERBEDS:
    1   3

  SYSTEM   1 OF DELAY BEDS:

 NUMBER OF BEDS IN SYSTEM =   7.63500     FOR LAYER   1

  SYSTEM   2 OF DELAY BEDS:

 NUMBER OF BEDS IN SYSTEM =   17.7180     FOR LAYER   3

  SYSTEM   1 OF NO-DELAY BEDS:

    PRECONSOLIDATION HEAD =  -7.00000     FOR LAYER   1

  SYSTEM   1 OF NO-DELAY BEDS:

 ELASTIC INTERBED STORAGE =  2.100000E-04 FOR LAYER   1

  SYSTEM   1 OF NO-DELAY BEDS:

  VIRGIN INTERBED STORAGE =  9.120000E-03 FOR LAYER   1

  SYSTEM   1 OF NO-DELAY BEDS:

      STARTING COMPACTION =   0.00000     FOR LAYER   1

  SYSTEM   2 OF NO-DELAY BEDS:

    PRECONSOLIDATION HEAD =  -7.00000     FOR LAYER   2

  SYSTEM   2 OF NO-DELAY BEDS:

 ELASTIC INTERBED STORAGE =  1.500000E-04 FOR LAYER   2

  SYSTEM   2 OF NO-DELAY BEDS:



            VIRGIN INTERBED STORAGE FOR LAYER   2
 READING ON UNIT   19 WITH FORMAT: (10F7.0)            

            1           2           3           4           5           6           7           8           9          10
 ........................................................................................................................
   1   7.6000E-03  7.6000E-03  7.6000E-03  7.6000E-03  7.6000E-03  7.6000E-03  7.6000E-03  7.6000E-03  7.6000E-03  7.6000E-03
   2   7.6000E-03  1.5000E-02  1.5000E-02  1.5000E-02  1.5000E-02  1.5000E-02  1.5000E-02  1.5000E-02  1.5000E-02  7.6000E-03
   3   7.6000E-03  1.5000E-02  1.5000E-02  1.5000E-02  1.5000E-02  1.5000E-02  1.5000E-02  1.5000E-02  1.5000E-02  7.6000E-03
   4   7.6000E-03  1.5000E-02  1.5000E-02  1.5000E-02  1.5000E-02  1.5000E-02  1.5000E-02  1.5000E-02  1.5000E-02  7.6000E-03
   5   7.6000E-03  1.5000E-02  1.5000E-02  1.5000E-02  1.5000E-02  1.5000E-02  1.5000E-02  1.5000E-02  1.5000E-02  7.6000E-03
   6   7.6000E-03  1.5000E-02  1.5000E-02  1.5000E-02  1.5000E-02  1.5000E-02  1.5000E-02  1.5000E-02  1.5000E-02  7.6000E-03
   7   7.6000E-03  1.5000E-02  1.5000E-02  1.5000E-02  1.5000E-02  1.5000E-02  1.5000E-02  1.5000E-02  1.5000E-02  7.6000E-03
   8   7.6000E-03  1.5000E-02  1.5000E-02  1.5000E-02  1.5000E-02  1.5000E-02  1.5000E-02  1.5000E-02  1.5000E-02  7.6000E-03
   9   7.6000E-03  1.5000E-02  1.5000E-02  1.5000E-02  1.5000E-02  1.5000E-02  1.5000E-02  1.5000E-02  1.5000E-02  7.6000E-03
  10   7.6000E-03  7.6000E-03  7.6000E-03  7.6000E-03  7.6000E-03  7.6000E-03  7.6000E-03  7.6000E-03  7.6000E-03  7.6000E-03

  SYSTEM   2 OF NO-DELAY BEDS:

      STARTING COMPACTION =   0.00000     FOR LAYER   2

  SYSTEM   3 OF NO-DELAY BEDS:

    PRECONSOLIDATION HEAD =  -7.00000     FOR LAYER   3

  SYSTEM   3 OF NO-DELAY BEDS:

 ELASTIC INTERBED STORAGE =  4.200000E-04 FOR LAYER   3

  SYSTEM   3 OF NO-DELAY BEDS:

  VIRGIN INTERBED STORAGE =  1.824000E-02 FOR LAYER   3

  SYSTEM   3 OF NO-DELAY BEDS:

      STARTING COMPACTION =   0.00000     FOR LAYER   3

 MATERIAL PROPERTIES OF INTERBEDS WITH DELAY PROPERTIES

   ZONE        HYDRAULIC           ELASTIC            INELASTIC       
  NUMBER      CONDUCTIVITY     SPECIFIC STORAGE    SPECIFIC STORAGE   
 ---------------------------------------------------------------------
    1        0.10000E-05         0.60000E-05         0.60000E-03

  SYSTEM   1 OF DELAY BEDS:



                DELAY STARTING HEAD FOR LAYER   1
 READING ON UNIT   19 WITH FORMAT: (10F7.0)            

            1           2           3           4           5           6           7           8           9          10
 ........................................................................................................................
   1    22.66       22.31       21.66       21.25       21.05       21.05       21.25       21.66       22.31       22.66    
   2    21.62       21.13       20.71       20.42       20.27       20.27       20.42       20.71       21.13       21.62    
   3    20.11       19.63       19.27       19.03       18.91       18.91       19.03       19.27       19.63       20.11    
   4    18.05       17.62       17.33       17.14       17.05       17.05       17.14       17.33       17.62       18.05    
   5    15.12       15.03       14.93       14.85       14.81       14.81       14.85       14.93       15.03       15.12    
   6    12.47       12.44       12.40       12.37       12.35       12.35       12.37       12.40       12.44       12.47    
   7    9.870       9.845       9.805       9.766       9.742       9.742       9.766       9.805       9.845       9.870    
   8    7.297       7.235       7.133       7.029       6.970       6.970       7.029       7.133       7.235       7.297    
   9    4.891       4.709       4.383       4.017       3.864       3.864       4.017       4.383       4.709       4.891    
  10    3.135       2.680       1.696       0.000       0.000       0.000       0.000       1.696       2.680       3.135    

  SYSTEM   1 OF DELAY BEDS:

    DELAY PRECOLSOL. HEAD =  -7.00000     FOR LAYER   1

  SYSTEM   1 OF DELAY BEDS:

 DELAY INITIAL COMPACTION =   0.00000     FOR LAYER   1

  SYSTEM   1 OF DELAY BEDS:

 DELAY INTERBED THICKNESS =   5.89400     FOR LAYER   1

  SYSTEM   1 OF DELAY BEDS:

    MATERIAL ZONE INDICES =              1 FOR LAYER   1

  SYSTEM   2 OF DELAY BEDS:



                DELAY STARTING HEAD FOR LAYER   3
 READING ON UNIT   19 WITH FORMAT: (10F7.0)            

            1           2           3           4           5           6           7           8           9          10
 ........................................................................................................................
   1    13.29       13.30       13.30       13.30       13.30       13.30       13.30       13.30       13.30       13.29    
   2    13.27       13.27       13.28       13.28       13.28       13.28       13.28       13.28       13.27       13.27    
   3    13.21       13.22       13.22       13.22       13.22       13.22       13.22       13.22       13.22       13.21    
   4    13.13       13.13       13.13       13.14       13.14       13.14       13.14       13.13       13.13       13.13    
   5    13.02       13.03       13.03       13.03       13.03       13.03       13.03       13.03       13.03       13.02    
   6    12.91       12.91       12.91       12.91       12.91       12.91       12.91       12.91       12.91       12.91    
   7    12.80       12.80       12.80       12.80       12.80       12.80       12.80       12.80       12.80       12.80    
   8    12.71       12.70       12.70       12.70       12.70       12.70       12.70       12.70       12.70       12.71    
   9    12.64       12.64       12.63       12.63       12.63       12.63       12.63       12.63       12.64       12.64    
  10    12.61       12.61       12.61       12.61       12.60       12.60       12.61       12.61       12.61       12.61    

  SYSTEM   2 OF DELAY BEDS:

    DELAY PRECOLSOL. HEAD =  -7.00000     FOR LAYER   3

  SYSTEM   2 OF DELAY BEDS:

 DELAY INITIAL COMPACTION =   0.00000     FOR LAYER   3

  SYSTEM   2 OF DELAY BEDS:

 DELAY INTERBED THICKNESS =   5.08000     FOR LAYER   3

  SYSTEM   2 OF DELAY BEDS:

    MATERIAL ZONE INDICES =              1 FOR LAYER   3

             SUBSIDENCE PRINT FORMAT IS NUMBER   0
                 UNIT FOR SAVING SUBSIDENCE IS  41
    COMPACTION BY LAYER PRINT FORMAT IS NUMBER   0
        UNIT FOR SAVING COMPACTION BY LAYER IS  42
   COMPACTION BY SYSTEM PRINT FORMAT IS NUMBER   0
       UNIT FOR SAVING COMPACTION BY SYSTEM IS  42
  VERTICAL DISPLACEMENT PRINT FORMAT IS NUMBER   0
      UNIT FOR SAVING VERTICAL DISPLACEMENT IS  41
 NO-DELAY CRITICAL HEAD PRINT FORMAT IS NUMBER   0
     UNIT FOR SAVING NO-DELAY CRITICAL HEAD IS  43
    DELAY CRITICAL HEAD PRINT FORMAT IS NUMBER   0
        UNIT FOR SAVING DELAY CRITICAL HEAD IS  43

 SIP -- STRONGLY-IMPLICIT PROCEDURE SOLUTION PACKAGE
                    VERSION 7, 5/2/2005 INPUT READ FROM UNIT   13
 MAXIMUM OF 120 ITERATIONS ALLOWED FOR CLOSURE
  5 ITERATION PARAMETERS

          SOLUTION BY THE STRONGLY IMPLICIT PROCEDURE
          -------------------------------------------
 MAXIMUM ITERATIONS ALLOWED FOR CLOSURE =      120
                 ACCELERATION PARAMETER =     1.0000    
      HEAD CHANGE CRITERION FOR CLOSURE =    0.10000E-04
      SIP HEAD CHANGE PRINTOUT INTERVAL =        1

     CALCULATE ITERATION PARAMETERS FROM MODEL CALCULATED WSEED
1
                            STRESS PERIOD NO.    1, LENGTH =   1.000000    
                            -----------------------------------------------

                              NUMBER OF TIME STEPS =     1

                               MULTIPLIER FOR DELT =     1.000

                            INITIAL TIME STEP SIZE =   1.000000    

 WELL NO.  LAYER   ROW   COL   STRESS RATE         
 --------------------------------------------------
      1      1      1      1       3000.    
      2      1      1      2       3000.    
      3      1      1      9       3000.    
      4      1      1     10       3000.    
      5      1      2      1       3000.    
      6      1      2     10       3000.    
      7      1      3      1       3000.    
      8      1      3     10       3000.    
      9      1      4      1       3000.    
     10      1      4     10       3000.    

     10 WELLS
 
 SOLVING FOR HEAD 

 AVERAGE SEED = 0.00104234
 MINIMUM SEED = 0.00001229

     5 ITERATION PARAMETERS CALCULATED FROM AVERAGE SEED:

  0.000000E+00 0.820319E+00 0.967715E+00 0.994199E+00 0.998958E+00

    56 ITERATIONS FOR TIME STEP   1 IN STRESS PERIOD    1

 MAXIMUM HEAD CHANGE FOR EACH ITERATION:

    HEAD CHANGE   HEAD CHANGE   HEAD CHANGE   HEAD CHANGE   HEAD CHANGE
  LAYER,ROW,COL LAYER,ROW,COL LAYER,ROW,COL LAYER,ROW,COL LAYER,ROW,COL
 ----------------------------------------------------------------------
      2.671         2.508         5.470         11.54         8.275    
  (  1,  1, 10) (  1,  1, 10) (  1,  1,  1) (  1,  1, 10) (  3,  1,  1)
      2.524         1.287       -0.9950        -2.001        -1.404    
  (  2,  2,  9) (  2, 10,  2) (  1,  7,  3) (  1,  1,  1) (  1,  1,  1)
     0.6811        0.3993        0.2702        0.7622        0.9893    
  (  2,  6,  1) (  2,  1,  2) (  1,  1,  1) (  1,  1, 10) (  3,  1,  1)
    -0.1359        0.9522E-01   -0.7821E-01   -0.1634       -0.1033    
  (  2,  9,  7) (  2, 10,  2) (  1,  7,  3) (  1,  1,  1) (  1,  1,  1)
     0.5098E-01    0.3160E-01    0.2107E-01    0.5952E-01    0.9494E-01
  (  2,  9,  6) (  2,  1,  2) (  1,  1,  1) (  1,  1, 10) (  3,  1,  1)
    -0.1183E-01    0.7216E-02   -0.6377E-02   -0.1338E-01   -0.7856E-02
  (  2,  9,  7) (  2, 10,  2) (  1,  7,  3) (  1,  1,  1) (  1,  1,  1)
     0.4081E-02    0.2552E-02    0.1665E-02    0.4682E-02    0.8297E-02
  (  2,  9,  6) (  2,  1,  2) (  1,  1,  1) (  1,  1, 10) (  3,  1,  1)
    -0.9887E-03    0.5632E-03   -0.5117E-03   -0.1076E-02   -0.6005E-03
  (  2,  9,  7) (  2, 10,  2) (  1,  7,  3) (  1,  1,  1) (  1,  1,  1)
     0.3225E-03    0.2046E-03    0.1309E-03    0.3672E-03    0.6956E-03
  (  2,  9,  6) (  2,  1,  2) (  1,  1,  1) (  1,  1, 10) (  3,  1,  1)
    -0.8063E-04    0.4409E-04   -0.4084E-04   -0.8565E-04    0.4994E-04
  (  2,  9,  7) (  2, 10,  2) (  1,  7,  3) (  1,  1,  1) (  3,  5,  1)
     0.2573E-04    0.1633E-04    0.1038E-04    0.2918E-04    0.5733E-04
  (  2,  9,  6) (  2,  1,  2) (  1,  1,  1) (  1,  1, 10) (  3,  2,  1)
    -0.6676E-05
  (  2,  9,  6)


 OUTPUT CONTROL FOR STRESS PERIOD    1   TIME STEP   1
    PRINT BUDGET
    PRINT HEAD FOR ALL LAYERS
    SAVE HEAD FOR ALL LAYERS
    SAVE DRAWDOWN FOR ALL LAYERS
1
              HEAD IN LAYER   1 AT END OF TIME STEP   1 IN STRESS PERIOD    1
  ---------------------------------------------------------------------------

           1       2       3       4       5       6       7       8       9      10
 ...................................................................................
   1    22.66   22.31   21.66   21.25   21.05   21.05   21.25   21.66   22.31   22.66
   2    21.62   21.13   20.71   20.42   20.27   20.27   20.42   20.71   21.13   21.62
   3    20.11   19.63   19.27   19.03   18.91   18.91   19.03   19.27   19.63   20.11
   4    18.05   17.62   17.33   17.14   17.05   17.05   17.14   17.33   17.62   18.05
   5    15.12   15.03   14.93   14.85   14.81   14.81   14.85   14.93   15.03   15.12
   6    12.47   12.44   12.40   12.37   12.35   12.35   12.37   12.40   12.44   12.47
   7     9.87    9.84    9.81    9.77    9.74    9.74    9.77    9.81    9.84    9.87
   8     7.30    7.24    7.13    7.03    6.97    6.97    7.03    7.13    7.24    7.30
   9     4.89    4.71    4.38    4.02    3.86    3.86    4.02    4.38    4.71    4.89
  10     3.13    2.68    1.70    0.00    0.00    0.00    0.00    1.70    2.68    3.13
1
              HEAD IN LAYER   2 AT END OF TIME STEP   1 IN STRESS PERIOD    1
  ---------------------------------------------------------------------------

           1       2       3       4       5       6       7       8       9      10
 ...................................................................................
   1    14.85   14.91   14.96   14.99   15.00   15.00   14.99   14.96   14.91   14.85
   2    14.53   16.75   16.88   16.77   16.70   16.70   16.77   16.88   16.75   14.53
   3    14.14   16.10   16.22   16.12   16.06   16.06   16.12   16.22   16.10   14.14
   4    13.67   15.13   15.21   15.14   15.09   15.09   15.14   15.21   15.13   13.67
   5    13.15   13.91   13.97   13.94   13.92   13.92   13.94   13.97   13.91   13.15
   6    12.61   12.67   12.66   12.64   12.63   12.63   12.64   12.66   12.67   12.61
   7    12.06   11.42   11.31   11.28   11.27   11.27   11.28   11.31   11.42   12.06
   8    11.54   10.18    9.93    9.87    9.84    9.84    9.87    9.93   10.18   11.54
   9    11.05    9.06    8.63    8.44    8.37    8.37    8.44    8.63    9.06   11.05
  10    10.63   10.55   10.48   10.42   10.40   10.40   10.42   10.48   10.55   10.63
1
              HEAD IN LAYER   3 AT END OF TIME STEP   1 IN STRESS PERIOD    1
  ---------------------------------------------------------------------------

           1       2       3       4       5       6       7       8       9      10
 ...................................................................................
   1    13.29   13.30   13.30   13.30   13.30   13.30   13.30   13.30   13.30   13.29
   2    13.27   13.27   13.28   13.28   13.28   13.28   13.28   13.28   13.27   13.27
   3    13.21   13.22   13.22   13.22   13.22   13.22   13.22   13.22   13.22   13.21
   4    13.13   13.13   13.13   13.14   13.14   13.14   13.14   13.13   13.13   13.13
   5    13.02   13.03   13.03   13.03   13.03   13.03   13.03   13.03   13.03   13.02
   6    12.91   12.91   12.91   12.91   12.91   12.91   12.91   12.91   12.91   12.91
   7    12.80   12.80   12.80   12.80   12.80   12.80   12.80   12.80   12.80   12.80
   8    12.71   12.70   12.70   12.70   12.70   12.70   12.70   12.70   12.70   12.71
   9    12.64   12.64   12.63   12.63   12.63   12.63   12.63   12.63   12.64   12.64
  10    12.61   12.61   12.61   12.61   12.61   12.61   12.61   12.61   12.61   12.61

 HEAD WILL BE SAVED ON UNIT   21 AT END OF TIME STEP   1, STRESS PERIOD    1

 DRAWDOWN WILL BE SAVED ON UNIT   22 AT END OF TIME STEP   1, STRESS PERIOD    1
1
  VOLUMETRIC BUDGET FOR ENTIRE MODEL AT END OF TIME STEP  1 IN STRESS PERIOD   1
  ------------------------------------------------------------------------------

     CUMULATIVE VOLUMES      L**3       RATES FOR THIS TIME STEP      L**3/T
     ------------------                 ------------------------

           IN:                                      IN:
           ---                                      ---
             STORAGE =           0.0000               STORAGE =           0.0000
       CONSTANT HEAD =           0.0000         CONSTANT HEAD =           0.0000
               WELLS =       30000.0000                 WELLS =       30000.0000
    INST. IB STORAGE =           0.0000      INST. IB STORAGE =           0.0000
    DELAY IB STORAGE =           0.0000      DELAY IB STORAGE =           0.0000

            TOTAL IN =       30000.0000              TOTAL IN =       30000.0000

          OUT:                                     OUT:
          ----                                     ----
             STORAGE =           0.0000               STORAGE =           0.0000
       CONSTANT HEAD =       30000.0312         CONSTANT HEAD =       30000.0312
               WELLS =           0.0000                 WELLS =           0.0000
    INST. IB STORAGE =           0.0000      INST. IB STORAGE =           0.0000
    DELAY IB STORAGE =           0.0000      DELAY IB STORAGE =           0.0000

           TOTAL OUT =       30000.0312             TOTAL OUT =       30000.0312

            IN - OUT =      -3.1250E-02              IN - OUT =      -3.1250E-02

 PERCENT DISCREPANCY =           0.00     PERCENT DISCREPANCY =           0.00






          TIME SUMMARY AT END OF TIME STEP   1 IN STRESS PERIOD    1
                    SECONDS     MINUTES      HOURS       DAYS        YEARS
                    -----------------------------------------------------------
   TIME STEP LENGTH  86400.      1440.0      24.000      1.0000     2.73785E-03
 STRESS PERIOD TIME  86400.      1440.0      24.000      1.0000     2.73785E-03
         TOTAL TIME  86400.      1440.0      24.000      1.0000     2.73785E-03
1
1
                            STRESS PERIOD NO.    2, LENGTH =   365.3000    
                            -----------------------------------------------

                              NUMBER OF TIME STEPS =     6

                               MULTIPLIER FOR DELT =     1.300

                            INITIAL TIME STEP SIZE =   28.63744    

 WELL NO.  LAYER   ROW   COL   STRESS RATE         
 --------------------------------------------------
      1      1      1      1       3000.    
      2      1      1      2       3000.    
      3      1      1      9       3000.    
      4      1      1     10       3000.    
      5      1      2      1       3000.    
      6      1      2     10       3000.    
      7      1      3      1       3000.    
      8      1      3     10       3000.    
      9      1      4      1       3000.    
     10      1      4     10       3000.    
     11      3      3      6     -0.1400E+05
     12      3      3      7      -8000.    
     13      3      4      6      -5000.    
     14      3      4      7      -3000.    

     14 WELLS
 
 SOLVING FOR HEAD 

    36 ITERATIONS FOR TIME STEP   1 IN STRESS PERIOD    2

 MAXIMUM HEAD CHANGE FOR EACH ITERATION:

    HEAD CHANGE   HEAD CHANGE   HEAD CHANGE   HEAD CHANGE   HEAD CHANGE
  LAYER,ROW,COL LAYER,ROW,COL LAYER,ROW,COL LAYER,ROW,COL LAYER,ROW,COL
 ----------------------------------------------------------------------
     -6.802        -3.312        -3.377        -1.292        0.5812    
  (  3,  3,  6) (  3,  2,  8) (  3,  2,  7) (  3,  3,  1) (  3,  1,  1)
    -0.1455        0.1651        0.4065        0.3511        0.1262    
  (  2,  7,  1) (  3,  2,  9) (  3,  1, 10) (  3,  2,  1) (  3,  1, 10)
     0.2769E-01    0.3005E-01    0.5811E-01    0.5325E-01    0.1428E-01
  (  2,  8,  1) (  3,  1, 10) (  3,  2,  6) (  3,  1, 10) (  3,  3,  7)
     0.2964E-02    0.4981E-02    0.1055E-01    0.7563E-02    0.3029E-02
  (  2,  8,  1) (  3,  3,  7) (  3,  1, 10) (  3,  2,  6) (  3,  3,  7)
     0.8698E-03    0.9238E-03    0.1539E-02    0.1291E-02    0.4387E-03
  (  2,  8,  1) (  3,  3,  7) (  3,  3,  7) (  3,  3,  7) (  3,  3,  7)
     0.1086E-03    0.2148E-03    0.4047E-03    0.2745E-03    0.1341E-03
  (  3,  3,  7) (  3,  3,  7) (  3,  3,  7) (  3,  3,  7) (  3,  3,  7)
     0.3271E-04    0.4459E-04    0.8806E-04    0.6827E-04   -0.4190E-04
  (  2,  8,  1) (  3,  3,  7) (  3,  3,  7) (  3,  3,  7) (  3, 10,  3)
    -0.7583E-05
  (  3,  1,  1)


 OUTPUT CONTROL FOR STRESS PERIOD    2   TIME STEP   1
    PRINT HEAD FOR ALL LAYERS
    PRINT BUDGET
    SAVE HEAD FOR ALL LAYERS
1
              HEAD IN LAYER   1 AT END OF TIME STEP   1 IN STRESS PERIOD    2
  ---------------------------------------------------------------------------

           1       2       3       4       5       6       7       8       9      10
 ...................................................................................
   1    22.66   22.31   21.66   21.24   21.04   21.04   21.24   21.66   22.31   22.66
   2    21.62   21.13   20.71   20.42   20.27   20.27   20.42   20.71   21.13   21.62
   3    20.11   19.63   19.27   19.02   18.90   18.90   19.02   19.27   19.63   20.11
   4    18.05   17.62   17.33   17.14   17.05   17.05   17.14   17.33   17.62   18.05
   5    15.11   15.03   14.93   14.85   14.81   14.81   14.85   14.93   15.03   15.11
   6    12.47   12.44   12.40   12.37   12.35   12.35   12.37   12.40   12.44   12.47
   7     9.87    9.84    9.80    9.77    9.74    9.74    9.77    9.80    9.84    9.87
   8     7.30    7.23    7.13    7.03    6.97    6.97    7.03    7.13    7.23    7.30
   9     4.89    4.71    4.38    4.02    3.86    3.86    4.02    4.38    4.71    4.89
  10     3.13    2.68    1.70    0.00    0.00    0.00    0.00    1.70    2.68    3.13
1
              HEAD IN LAYER   2 AT END OF TIME STEP   1 IN STRESS PERIOD    2
  ---------------------------------------------------------------------------

           1       2       3       4       5       6       7       8       9      10
 ...................................................................................
   1    13.88   13.93   13.96   13.97   13.98   13.97   13.95   13.92   13.87   13.81
   2    13.62   15.71   15.74   15.50   15.27   15.13   15.20   15.41   15.39   13.51
   3    13.28   15.02   14.97   14.60   14.09   13.39   13.63   14.29   14.52   13.15
   4    12.88   14.16   14.11   13.84   13.52   13.16   13.27   13.63   13.76   12.75
   5    12.44   13.14   13.14   13.02   12.91   12.83   12.84   12.92   12.91   12.32
   6    11.97   12.09   12.06   12.01   11.96   11.94   11.94   11.96   11.97   11.87
   7    11.50   10.99   10.88   10.84   10.81   10.80   10.81   10.83   10.93   11.42
   8    11.04    9.85    9.62    9.54    9.51    9.50    9.53    9.59    9.82   10.98
   9    10.61    8.79    8.38    8.19    8.11    8.11    8.18    8.37    8.78   10.57
  10    10.23   10.15   10.08   10.03   10.01   10.01   10.03   10.07   10.13   10.21
1
              HEAD IN LAYER   3 AT END OF TIME STEP   1 IN STRESS PERIOD    2
  ---------------------------------------------------------------------------

           1       2       3       4       5       6       7       8       9      10
 ...................................................................................
   1     8.96    8.84    8.61    8.31    7.99    7.74    7.65    7.70    7.79    7.86
   2     8.75    8.55    8.15    7.56    6.84    6.19    6.19    6.61    7.01    7.24
   3     8.60    8.28    7.59    6.38    4.36    0.93    1.84    4.51    5.92    6.54
   4     8.96    8.71    8.18    7.32    6.06    4.33    4.66    5.99    6.84    7.25
   5     9.67    9.54    9.28    8.91    8.48    8.11    8.08    8.28    8.50    8.63
   6    10.38   10.32   10.21   10.07    9.91    9.79    9.75    9.76    9.80    9.83
   7    10.94   10.91   10.86   10.80   10.74   10.69   10.66   10.65   10.65   10.66
   8    11.31   11.30   11.28   11.25   11.22   11.20   11.18   11.17   11.17   11.17
   9    11.54   11.53   11.52   11.50   11.49   11.48   11.47   11.46   11.46   11.46
  10    11.65   11.64   11.64   11.63   11.62   11.61   11.61   11.60   11.60   11.60

 HEAD WILL BE SAVED ON UNIT   21 AT END OF TIME STEP   1, STRESS PERIOD    2
1
  VOLUMETRIC BUDGET FOR ENTIRE MODEL AT END OF TIME STEP  1 IN STRESS PERIOD   2
  ------------------------------------------------------------------------------

     CUMULATIVE VOLUMES      L**3       RATES FOR THIS TIME STEP      L**3/T
     ------------------                 ------------------------

           IN:                                      IN:
           ---                                      ---
             STORAGE =      224229.1094               STORAGE =        7829.9287
       CONSTANT HEAD =           0.0000         CONSTANT HEAD =           0.0000
               WELLS =      889123.1875                 WELLS =       30000.0000
    INST. IB STORAGE =      344507.7188      INST. IB STORAGE =       12029.9756
    DELAY IB STORAGE =      290022.6875      DELAY IB STORAGE =       10127.3955

            TOTAL IN =     1747882.7500              TOTAL IN =       59987.3008

          OUT:                                     OUT:
          ----                                     ----
             STORAGE =           0.0000               STORAGE =           0.0000
       CONSTANT HEAD =      888772.0625         CONSTANT HEAD =       29987.7383
               WELLS =      859123.1875                 WELLS =       30000.0000
    INST. IB STORAGE =           0.0000      INST. IB STORAGE =           0.0000
    DELAY IB STORAGE =           0.0000      DELAY IB STORAGE =           0.0000

           TOTAL OUT =     1747895.2500             TOTAL OUT =       59987.7383

            IN - OUT =         -12.5000              IN - OUT =          -0.4375

 PERCENT DISCREPANCY =           0.00     PERCENT DISCREPANCY =           0.00






          TIME SUMMARY AT END OF TIME STEP   1 IN STRESS PERIOD    2
                    SECONDS     MINUTES      HOURS       DAYS        YEARS
                    -----------------------------------------------------------
   TIME STEP LENGTH 2.47427E+06  41238.      687.30      28.637     7.84050E-02
 STRESS PERIOD TIME 2.47427E+06  41238.      687.30      28.637     7.84050E-02
         TOTAL TIME 2.56067E+06  42678.      711.30      29.637     8.11429E-02
1
 
 SOLVING FOR HEAD 
    36 ITERATIONS FOR TIME STEP   2 IN STRESS PERIOD    2

 MAXIMUM HEAD CHANGE FOR EACH ITERATION:

    HEAD CHANGE   HEAD CHANGE   HEAD CHANGE   HEAD CHANGE   HEAD CHANGE
  LAYER,ROW,COL LAYER,ROW,COL LAYER,ROW,COL LAYER,ROW,COL LAYER,ROW,COL
 ----------------------------------------------------------------------
     -1.952        -2.327        -3.284        -1.812        0.6614    
  (  2,  3,  6) (  3,  1, 10) (  3,  1,  1) (  3,  4,  1) (  3,  1,  1)
    -0.2336        0.1657        0.4562        0.4924        0.1728    
  (  2,  6,  1) (  3,  1,  1) (  3,  1, 10) (  3,  2,  1) (  3,  1, 10)
     0.3521E-01    0.2605E-01    0.5743E-01    0.6173E-01    0.1612E-01
  (  2,  8,  1) (  3,  1, 10) (  3,  1,  1) (  3,  1, 10) (  3,  2,  9)
     0.2922E-02    0.3667E-02    0.9051E-02    0.7311E-02    0.2698E-02
  (  2,  8,  1) (  3,  1,  1) (  3,  1, 10) (  3,  1,  1) (  3,  1, 10)
     0.9501E-03    0.6466E-03    0.1146E-02    0.1059E-02    0.3144E-03
  (  2,  9,  1) (  3,  1, 10) (  3,  2,  7) (  3,  1, 10) (  3,  2, 10)
    -0.1222E-03    0.1227E-03    0.2798E-03    0.1891E-03    0.8005E-04
  (  2,  2,  1) (  3,  3,  8) (  3,  1, 10) (  3,  2,  6) (  3,  2,  9)
     0.3749E-04    0.1257E-04    0.2512E-04   -0.3492E-04   -0.3528E-04
  (  2,  9,  1) (  3,  3,  7) (  3,  2,  9) (  3, 10,  1) (  3, 10,  1)
    -0.5778E-05
  (  2,  2,  1)


 OUTPUT CONTROL FOR STRESS PERIOD    2   TIME STEP   2
    PRINT HEAD FOR ALL LAYERS
    PRINT BUDGET
    SAVE HEAD FOR ALL LAYERS
1
              HEAD IN LAYER   1 AT END OF TIME STEP   2 IN STRESS PERIOD    2
  ---------------------------------------------------------------------------

           1       2       3       4       5       6       7       8       9      10
 ...................................................................................
   1    22.65   22.31   21.65   21.24   21.04   21.04   21.24   21.65   22.31   22.65
   2    21.62   21.12   20.71   20.41   20.26   20.26   20.41   20.71   21.12   21.62
   3    20.11   19.62   19.26   19.02   18.90   18.90   19.02   19.26   19.62   20.11
   4    18.04   17.62   17.32   17.14   17.05   17.04   17.14   17.32   17.61   18.04
   5    15.11   15.03   14.93   14.85   14.80   14.80   14.85   14.93   15.03   15.11
   6    12.47   12.44   12.40   12.36   12.34   12.34   12.36   12.40   12.44   12.47
   7     9.87    9.84    9.80    9.76    9.74    9.74    9.76    9.80    9.84    9.87
   8     7.30    7.23    7.13    7.03    6.97    6.97    7.03    7.13    7.23    7.29
   9     4.89    4.71    4.38    4.02    3.86    3.86    4.02    4.38    4.71    4.89
  10     3.13    2.68    1.70    0.00    0.00    0.00    0.00    1.70    2.68    3.13
1
              HEAD IN LAYER   2 AT END OF TIME STEP   2 IN STRESS PERIOD    2
  ---------------------------------------------------------------------------

           1       2       3       4       5       6       7       8       9      10
 ...................................................................................
   1    12.04   12.07   12.09   12.10   12.09   12.08   12.06   12.03   11.99   11.94
   2    11.84   13.68   13.61   13.26   12.90   12.65   12.70   12.97   13.06   11.68
   3    11.58   13.00   12.80   12.22   11.38   10.22   10.55   11.56   12.07   11.38
   4    11.26   12.31   12.14   11.71   11.18   10.57   10.70   11.24   11.56   11.06
   5    10.91   11.54   11.48   11.30   11.10   10.95   10.95   11.05   11.10   10.73
   6    10.54   10.75   10.71   10.63   10.55   10.50   10.48   10.50   10.52   10.38
   7    10.16    9.88    9.78    9.73    9.69    9.66    9.66    9.68    9.75   10.03
   8     9.78    8.91    8.70    8.63    8.58    8.57    8.59    8.65    8.84    9.69
   9     9.42    7.96    7.58    7.39    7.30    7.30    7.37    7.55    7.92    9.36
  10     9.10    9.03    8.97    8.93    8.91    8.90    8.92    8.95    9.00    9.07
1
              HEAD IN LAYER   3 AT END OF TIME STEP   2 IN STRESS PERIOD    2
  ---------------------------------------------------------------------------

           1       2       3       4       5       6       7       8       9      10
 ...................................................................................
   1     3.51    3.35    3.05    2.67    2.26    1.93    1.79    1.81    1.90    1.96
   2     3.34    3.10    2.61    1.91    1.07    0.33    0.27    0.68    1.10    1.33
   3     3.36    2.99    2.19    0.83   -1.37   -4.95   -4.07   -1.36    0.11    0.76
   4     4.11    3.81    3.18    2.20    0.80   -1.04   -0.76    0.59    1.47    1.90
   5     5.36    5.19    4.87    4.42    3.91    3.48    3.41    3.60    3.82    3.96
   6     6.65    6.57    6.43    6.24    6.04    5.88    5.80    5.80    5.84    5.86
   7     7.74    7.70    7.64    7.55    7.47    7.39    7.35    7.32    7.31    7.31
   8     8.54    8.52    8.49    8.45    8.41    8.37    8.35    8.33    8.32    8.31
   9     9.06    9.05    9.03    9.01    8.99    8.97    8.95    8.94    8.93    8.93
  10     9.32    9.31    9.30    9.29    9.27    9.26    9.25    9.24    9.23    9.23

 HEAD WILL BE SAVED ON UNIT   21 AT END OF TIME STEP   2, STRESS PERIOD    2
1
  VOLUMETRIC BUDGET FOR ENTIRE MODEL AT END OF TIME STEP  2 IN STRESS PERIOD   2
  ------------------------------------------------------------------------------

     CUMULATIVE VOLUMES      L**3       RATES FOR THIS TIME STEP      L**3/T
     ------------------                 ------------------------

           IN:                                      IN:
           ---                                      ---
             STORAGE =      515905.0000               STORAGE =        7834.7109
       CONSTANT HEAD =           0.0000         CONSTANT HEAD =           0.0000
               WELLS =     2005983.3750                 WELLS =       30000.0000
    INST. IB STORAGE =      742645.0000      INST. IB STORAGE =       10694.3721
    DELAY IB STORAGE =      715139.0625      DELAY IB STORAGE =       11419.0576

            TOTAL IN =     3979672.5000              TOTAL IN =       59948.1406

          OUT:                                     OUT:
          ----                                     ----
             STORAGE =           0.0000               STORAGE =           0.0000
       CONSTANT HEAD =     2003692.5000         CONSTANT HEAD =       29947.8965
               WELLS =     1975983.3750                 WELLS =       30000.0000
    INST. IB STORAGE =           0.0000      INST. IB STORAGE =           0.0000
    DELAY IB STORAGE =           0.0000      DELAY IB STORAGE =           0.0000

           TOTAL OUT =     3979676.0000             TOTAL OUT =       59947.8984

            IN - OUT =          -3.5000              IN - OUT =           0.2422

 PERCENT DISCREPANCY =           0.00     PERCENT DISCREPANCY =           0.00






          TIME SUMMARY AT END OF TIME STEP   2 IN STRESS PERIOD    2
                    SECONDS     MINUTES      HOURS       DAYS        YEARS
                    -----------------------------------------------------------
   TIME STEP LENGTH 3.21656E+06  53609.      893.49      37.229     0.10193    
 STRESS PERIOD TIME 5.69083E+06  94847.      1580.8      65.866     0.18033    
         TOTAL TIME 5.77723E+06  96287.      1604.8      66.866     0.18307    
1
 
 SOLVING FOR HEAD 
    36 ITERATIONS FOR TIME STEP   3 IN STRESS PERIOD    2

 MAXIMUM HEAD CHANGE FOR EACH ITERATION:

    HEAD CHANGE   HEAD CHANGE   HEAD CHANGE   HEAD CHANGE   HEAD CHANGE
  LAYER,ROW,COL LAYER,ROW,COL LAYER,ROW,COL LAYER,ROW,COL LAYER,ROW,COL
 ----------------------------------------------------------------------
     -1.931        -1.987        -2.935        -1.853        0.5227    
  (  2,  3,  6) (  3,  1, 10) (  3,  1,  1) (  3,  8,  1) (  3,  1,  1)
    -0.3121        0.1531        0.4030        0.4939        0.1624    
  (  2,  5,  1) (  3, 10, 10) (  3, 10,  1) (  3, 10, 10) (  3,  1,  1)
     0.3400E-01    0.4292E-01    0.6964E-01    0.6490E-01    0.2541E-01
  (  2,  4,  1) (  3,  1, 10) (  3,  1,  1) (  3,  8,  1) (  3,  5,  1)
     0.4264E-02    0.6232E-02    0.1070E-01    0.8515E-02    0.3215E-02
  (  3,  2,  6) (  3,  1,  1) (  3,  1,  4) (  3,  4,  1) (  3,  1,  4)
     0.1015E-02    0.1017E-02    0.1372E-02    0.1113E-02    0.4477E-03
  (  2,  8,  1) (  3,  1, 10) (  3,  1,  1) (  3,  1,  2) (  3,  4,  1)
    -0.1224E-03    0.1657E-03    0.2830E-03    0.1776E-03    0.9804E-04
  (  2,  2,  1) (  3,  1,  1) (  3,  1,  4) (  3,  4,  1) (  3,  1,  4)
     0.3933E-04    0.4013E-04    0.4640E-04    0.4380E-04   -0.2715E-04
  (  2,  8,  1) (  3,  1, 10) (  3,  1,  9) (  3,  1,  2) (  3, 10,  2)
    -0.6617E-05
  (  3, 10,  1)


 OUTPUT CONTROL FOR STRESS PERIOD    2   TIME STEP   3
    PRINT HEAD FOR ALL LAYERS
    PRINT BUDGET
    SAVE HEAD FOR ALL LAYERS
1
              HEAD IN LAYER   1 AT END OF TIME STEP   3 IN STRESS PERIOD    2
  ---------------------------------------------------------------------------

           1       2       3       4       5       6       7       8       9      10
 ...................................................................................
   1    22.65   22.30   21.65   21.23   21.03   21.03   21.23   21.65   22.30   22.65
   2    21.61   21.11   20.70   20.41   20.26   20.25   20.40   20.70   21.11   21.61
   3    20.10   19.62   19.25   19.01   18.89   18.89   19.01   19.25   19.61   20.10
   4    18.04   17.61   17.31   17.13   17.04   17.04   17.13   17.31   17.61   18.03
   5    15.11   15.02   14.92   14.84   14.80   14.80   14.84   14.92   15.02   15.10
   6    12.46   12.43   12.39   12.36   12.34   12.34   12.36   12.39   12.43   12.46
   7     9.86    9.84    9.80    9.76    9.74    9.73    9.76    9.80    9.84    9.86
   8     7.29    7.23    7.13    7.02    6.96    6.96    7.02    7.13    7.23    7.29
   9     4.88    4.70    4.38    4.01    3.86    3.86    4.01    4.38    4.70    4.88
  10     3.13    2.67    1.69    0.00    0.00    0.00    0.00    1.69    2.67    3.13
1
              HEAD IN LAYER   2 AT END OF TIME STEP   3 IN STRESS PERIOD    2
  ---------------------------------------------------------------------------

           1       2       3       4       5       6       7       8       9      10
 ...................................................................................
   1     9.71    9.74    9.75    9.75    9.74    9.73    9.71    9.68    9.65    9.60
   2     9.56   11.12   10.98   10.58   10.18    9.88    9.92   10.20   10.37    9.39
   3     9.34   10.49   10.20    9.53    8.58    7.29    7.64    8.74    9.39    9.13
   4     9.08    9.93    9.68    9.19    8.55    7.83    7.97    8.59    9.02    8.87
   5     8.80    9.35    9.26    9.03    8.80    8.61    8.60    8.72    8.80    8.59
   6     8.49    8.77    8.72    8.63    8.53    8.46    8.44    8.45    8.46    8.31
   7     8.16    8.08    8.01    7.95    7.90    7.86    7.85    7.87    7.91    8.02
   8     7.84    7.27    7.09    7.02    6.97    6.95    6.97    7.02    7.17    7.73
   9     7.53    6.41    6.07    5.88    5.79    5.78    5.85    6.03    6.35    7.46
  10     7.25    7.19    7.13    7.09    7.07    7.07    7.08    7.11    7.16    7.21
1
              HEAD IN LAYER   3 AT END OF TIME STEP   3 IN STRESS PERIOD    2
  ---------------------------------------------------------------------------

           1       2       3       4       5       6       7       8       9      10
 ...................................................................................
   1    -1.69   -1.84   -2.12   -2.49   -2.88   -3.19   -3.34   -3.34   -3.28   -3.22
   2    -1.77   -1.99   -2.45   -3.10   -3.87   -4.55   -4.63   -4.28   -3.92   -3.72
   3    -1.59   -1.93   -2.67   -3.92   -5.89   -9.04   -8.29   -5.95   -4.66   -4.08
   4    -0.67   -0.95   -1.55   -2.49   -3.83   -5.61   -5.34   -4.05   -3.22   -2.82
   5     0.80    0.64    0.32   -0.11   -0.61   -1.04   -1.11   -0.94   -0.73   -0.60
   6     2.34    2.26    2.12    1.93    1.73    1.57    1.49    1.48    1.51    1.53
   7     3.68    3.65    3.58    3.50    3.41    3.33    3.28    3.25    3.24    3.24
   8     4.71    4.69    4.66    4.62    4.57    4.53    4.50    4.48    4.47    4.46
   9     5.40    5.38    5.37    5.34    5.32    5.29    5.28    5.26    5.25    5.25
  10     5.74    5.73    5.72    5.71    5.69    5.67    5.66    5.65    5.64    5.64

 HEAD WILL BE SAVED ON UNIT   21 AT END OF TIME STEP   3, STRESS PERIOD    2
1
  VOLUMETRIC BUDGET FOR ENTIRE MODEL AT END OF TIME STEP  3 IN STRESS PERIOD   2
  ------------------------------------------------------------------------------

     CUMULATIVE VOLUMES      L**3       RATES FOR THIS TIME STEP      L**3/T
     ------------------                 ------------------------

           IN:                                      IN:
           ---                                      ---
             STORAGE =      897659.5000               STORAGE =        7887.9341
       CONSTANT HEAD =           0.0000         CONSTANT HEAD =           0.0000
               WELLS =     3457901.5000                 WELLS =       30000.0000
    INST. IB STORAGE =     1291320.0000      INST. IB STORAGE =       11336.9014
    DELAY IB STORAGE =     1230219.6250      DELAY IB STORAGE =       10642.7607

            TOTAL IN =     6877100.5000              TOTAL IN =       59867.5977

          OUT:                                     OUT:
          ----                                     ----
             STORAGE =           0.0000               STORAGE =           0.0000
       CONSTANT HEAD =     3449211.2500         CONSTANT HEAD =       29867.7734
               WELLS =     3427901.5000                 WELLS =       30000.0000
    INST. IB STORAGE =           0.0000      INST. IB STORAGE =           0.0000
    DELAY IB STORAGE =           0.0000      DELAY IB STORAGE =           0.0000

           TOTAL OUT =     6877113.0000             TOTAL OUT =       59867.7734

            IN - OUT =         -12.5000              IN - OUT =          -0.1758

 PERCENT DISCREPANCY =           0.00     PERCENT DISCREPANCY =           0.00






          TIME SUMMARY AT END OF TIME STEP   3 IN STRESS PERIOD    2
                    SECONDS     MINUTES      HOURS       DAYS        YEARS
                    -----------------------------------------------------------
   TIME STEP LENGTH 4.18152E+06  69692.      1161.5      48.397     0.13250    
 STRESS PERIOD TIME 9.87236E+06 1.64539E+05  2742.3      114.26     0.31284    
         TOTAL TIME 9.95876E+06 1.65979E+05  2766.3      115.26     0.31557    
1
 
 SOLVING FOR HEAD 
    39 ITERATIONS FOR TIME STEP   4 IN STRESS PERIOD    2

 MAXIMUM HEAD CHANGE FOR EACH ITERATION:

    HEAD CHANGE   HEAD CHANGE   HEAD CHANGE   HEAD CHANGE   HEAD CHANGE
  LAYER,ROW,COL LAYER,ROW,COL LAYER,ROW,COL LAYER,ROW,COL LAYER,ROW,COL
 ----------------------------------------------------------------------
     -1.729        -1.619        -2.505        -1.614        0.4172    
  (  2,  3,  6) (  3,  1, 10) (  3, 10, 10) (  3, 10,  1) (  2,  1,  1)
    -0.3480        0.1063        0.2730        0.3520        0.6908E-01
  (  2,  5,  1) (  3, 10,  3) (  3, 10,  1) (  3, 10, 10) (  3,  1,  1)
     0.3138E-01    0.2318E-01    0.5796E-01    0.6188E-01    0.2822E-01
  (  2,  4,  1) (  3,  1,  4) (  3, 10, 10) (  3, 10,  1) (  3,  8,  1)
     0.4394E-02    0.6788E-02    0.8337E-02    0.1103E-01    0.3426E-02
  (  3,  1,  5) (  3,  1,  1) (  3,  1,  2) (  3,  7,  1) (  3,  1,  1)
     0.8181E-03    0.1356E-02    0.1994E-02    0.1858E-02    0.9304E-03
  (  2,  5,  1) (  3,  1,  8) (  3,  5,  2) (  3, 10,  1) (  3,  6,  1)
     0.2066E-03    0.3411E-03    0.4381E-03    0.4006E-03    0.1794E-03
  (  3,  1,  5) (  3,  1,  1) (  3,  1,  2) (  3,  5,  1) (  3,  1,  1)
     0.4893E-04    0.8236E-04    0.8602E-04    0.7170E-04    0.5194E-04
  (  2,  7,  1) (  3,  1, 10) (  3,  1,  1) (  3,  1,  1) (  3,  6,  1)
     0.1226E-04    0.1320E-04    0.1596E-04    0.8579E-05
  (  3,  1,  5) (  3,  1,  1) (  3,  1,  1) (  3,  4,  1)


 OUTPUT CONTROL FOR STRESS PERIOD    2   TIME STEP   4
    PRINT HEAD FOR ALL LAYERS
    PRINT BUDGET
    SAVE HEAD FOR ALL LAYERS
1
              HEAD IN LAYER   1 AT END OF TIME STEP   4 IN STRESS PERIOD    2
  ---------------------------------------------------------------------------

           1       2       3       4       5       6       7       8       9      10
 ...................................................................................
   1    22.63   22.29   21.63   21.22   21.02   21.02   21.22   21.63   22.29   22.63
   2    21.60   21.10   20.68   20.39   20.24   20.24   20.39   20.68   21.10   21.59
   3    20.09   19.60   19.24   19.00   18.87   18.87   18.99   19.23   19.60   20.09
   4    18.02   17.59   17.30   17.11   17.02   17.02   17.11   17.30   17.59   18.02
   5    15.09   15.01   14.91   14.83   14.78   14.78   14.82   14.90   15.00   15.09
   6    12.45   12.42   12.38   12.35   12.33   12.32   12.35   12.38   12.42   12.45
   7     9.85    9.83    9.79    9.75    9.72    9.72    9.75    9.79    9.83    9.85
   8     7.28    7.22    7.12    7.01    6.95    6.95    7.01    7.12    7.22    7.28
   9     4.88    4.69    4.37    4.00    3.85    3.85    4.00    4.37    4.69    4.88
  10     3.12    2.67    1.69    0.00    0.00    0.00    0.00    1.69    2.67    3.12
1
              HEAD IN LAYER   2 AT END OF TIME STEP   4 IN STRESS PERIOD    2
  ---------------------------------------------------------------------------

           1       2       3       4       5       6       7       8       9      10
 ...................................................................................
   1     7.50    7.53    7.54    7.55    7.54    7.53    7.51    7.49    7.46    7.42
   2     7.34    8.76    8.62    8.24    7.87    7.61    7.67    7.95    8.12    7.21
   3     7.13    8.17    7.88    7.26    6.39    5.08    5.47    6.60    7.23    6.97
   4     6.87    7.64    7.39    6.92    6.32    5.64    5.80    6.39    6.83    6.70
   5     6.59    7.10    7.01    6.79    6.57    6.39    6.38    6.50    6.60    6.42
   6     6.28    6.57    6.53    6.44    6.35    6.28    6.26    6.27    6.28    6.14
   7     5.96    5.94    5.88    5.83    5.78    5.74    5.73    5.75    5.78    5.85
   8     5.64    5.18    5.03    4.96    4.91    4.89    4.91    4.96    5.08    5.55
   9     5.34    4.35    4.05    3.86    3.77    3.76    3.83    4.00    4.29    5.28
  10     5.06    5.00    4.95    4.91    4.89    4.89    4.90    4.93    4.97    5.03
1
              HEAD IN LAYER   3 AT END OF TIME STEP   4 IN STRESS PERIOD    2
  ---------------------------------------------------------------------------

           1       2       3       4       5       6       7       8       9      10
 ...................................................................................
   1    -5.46   -5.57   -5.79   -6.06   -6.35   -6.57   -6.66   -6.65   -6.60   -6.56
   2    -5.47   -5.65   -5.99   -6.49   -7.05   -7.54   -7.54   -7.25   -7.00   -6.85
   3    -5.25   -5.52   -6.10   -7.06   -8.60  -11.64  -10.75   -8.44   -7.42   -7.01
   4    -4.39   -4.62   -5.10   -5.85   -6.93   -8.38   -8.09   -7.01   -6.33   -6.01
   5    -3.05   -3.18   -3.44   -3.79   -4.19   -4.53   -4.57   -4.42   -4.24   -4.14
   6    -1.62   -1.69   -1.80   -1.96   -2.12   -2.25   -2.31   -2.31   -2.28   -2.26
   7    -0.36   -0.39   -0.44   -0.51   -0.58   -0.65   -0.69   -0.71   -0.72   -0.72
   8     0.63    0.61    0.59    0.55    0.52    0.48    0.46    0.44    0.43    0.42
   9     1.30    1.29    1.27    1.25    1.23    1.21    1.20    1.18    1.18    1.17
  10     1.64    1.63    1.62    1.61    1.59    1.58    1.57    1.56    1.55    1.55

 HEAD WILL BE SAVED ON UNIT   21 AT END OF TIME STEP   4, STRESS PERIOD    2
1
  VOLUMETRIC BUDGET FOR ENTIRE MODEL AT END OF TIME STEP  4 IN STRESS PERIOD   2
  ------------------------------------------------------------------------------

     CUMULATIVE VOLUMES      L**3       RATES FOR THIS TIME STEP      L**3/T
     ------------------                 ------------------------

           IN:                                      IN:
           ---                                      ---
             STORAGE =     1355292.3750               STORAGE =        7273.6602
       CONSTANT HEAD =           0.0000         CONSTANT HEAD =           0.0000
               WELLS =     5345395.0000                 WELLS =       30000.0000
    INST. IB STORAGE =     2108039.0000      INST. IB STORAGE =       12981.0107
    DELAY IB STORAGE =     1827210.7500      DELAY IB STORAGE =        9488.6328

            TOTAL IN =    10635937.0000              TOTAL IN =       59743.3047

          OUT:                                     OUT:
          ----                                     ----
             STORAGE =           0.0000               STORAGE =           0.0000
       CONSTANT HEAD =     5320555.5000         CONSTANT HEAD =       29743.3262
               WELLS =     5315395.0000                 WELLS =       30000.0000
    INST. IB STORAGE =           0.0000      INST. IB STORAGE =           0.0000
    DELAY IB STORAGE =           0.0000      DELAY IB STORAGE =           0.0000

           TOTAL OUT =    10635950.0000             TOTAL OUT =       59743.3281

            IN - OUT =         -13.0000              IN - OUT =      -2.3438E-02

 PERCENT DISCREPANCY =           0.00     PERCENT DISCREPANCY =           0.00






          TIME SUMMARY AT END OF TIME STEP   4 IN STRESS PERIOD    2
                    SECONDS     MINUTES      HOURS       DAYS        YEARS
                    -----------------------------------------------------------
   TIME STEP LENGTH 5.43598E+06  90600.      1510.0      62.916     0.17226    
 STRESS PERIOD TIME 1.53083E+07 2.55139E+05  4252.3      177.18     0.48509    
         TOTAL TIME 1.53947E+07 2.56579E+05  4276.3      178.18     0.48783    
1
 
 SOLVING FOR HEAD 
    36 ITERATIONS FOR TIME STEP   5 IN STRESS PERIOD    2

 MAXIMUM HEAD CHANGE FOR EACH ITERATION:

    HEAD CHANGE   HEAD CHANGE   HEAD CHANGE   HEAD CHANGE   HEAD CHANGE
  LAYER,ROW,COL LAYER,ROW,COL LAYER,ROW,COL LAYER,ROW,COL LAYER,ROW,COL
 ----------------------------------------------------------------------
     -1.247       -0.9222        -2.120        -1.318        0.4550    
  (  2,  3,  6) (  3, 10,  1) (  3, 10, 10) (  3, 10,  1) (  2,  1, 10)
    -0.3810        0.7566E-01    0.2020        0.2445        0.4679E-01
  (  2,  1, 10) (  3, 10,  3) (  3, 10,  1) (  3, 10, 10) (  3, 10, 10)
     0.3529E-01    0.2475E-01    0.4543E-01    0.4684E-01    0.1964E-01
  (  2,  3,  1) (  2,  1,  2) (  3, 10, 10) (  3, 10,  1) (  3, 10,  1)
     0.8238E-02    0.2756E-02    0.4819E-02    0.7931E-02    0.1370E-02
  (  2,  2,  1) (  3,  1,  1) (  3, 10,  1) (  3, 10, 10) (  3, 10, 10)
    -0.4072E-03    0.4950E-03    0.1584E-02    0.1645E-02    0.7280E-03
  (  2,  9,  1) (  3, 10,  1) (  3, 10, 10) (  3, 10,  1) (  3,  9,  1)
     0.1821E-03    0.1221E-03    0.9586E-04    0.2554E-03    0.9312E-04
  (  2,  2,  1) (  3,  1,  1) (  3,  9,  9) (  3,  8,  1) (  3, 10,  1)
    -0.2934E-04   -0.2060E-04    0.4734E-04    0.7638E-04    0.5095E-04
  (  3,  3,  7) (  3,  3,  6) (  3,  8,  1) (  3, 10,  1) (  3,  9,  1)
    -0.7443E-05
  (  2,  8,  1)


 OUTPUT CONTROL FOR STRESS PERIOD    2   TIME STEP   5
    PRINT HEAD FOR ALL LAYERS
    PRINT BUDGET
    SAVE HEAD FOR ALL LAYERS
1
              HEAD IN LAYER   1 AT END OF TIME STEP   5 IN STRESS PERIOD    2
  ---------------------------------------------------------------------------

           1       2       3       4       5       6       7       8       9      10
 ...................................................................................
   1    22.61   22.27   21.61   21.20   21.00   20.99   21.20   21.61   22.26   22.61
   2    21.57   21.08   20.66   20.37   20.22   20.22   20.36   20.66   21.08   21.57
   3    20.07   19.58   19.22   18.97   18.85   18.85   18.97   19.21   19.57   20.06
   4    18.00   17.57   17.28   17.09   17.00   17.00   17.09   17.27   17.57   18.00
   5    15.07   14.99   14.88   14.80   14.76   14.76   14.80   14.88   14.98   15.07
   6    12.43   12.40   12.36   12.33   12.31   12.30   12.33   12.36   12.40   12.43
   7     9.83    9.81    9.77    9.73    9.71    9.71    9.73    9.77    9.81    9.83
   8     7.26    7.20    7.10    7.00    6.94    6.94    7.00    7.10    7.20    7.26
   9     4.86    4.68    4.36    3.99    3.84    3.84    3.99    4.36    4.68    4.86
  10     3.11    2.65    1.68    0.00    0.00    0.00    0.00    1.68    2.65    3.11
1
              HEAD IN LAYER   2 AT END OF TIME STEP   5 IN STRESS PERIOD    2
  ---------------------------------------------------------------------------

           1       2       3       4       5       6       7       8       9      10
 ...................................................................................
   1     6.03    6.06    6.09    6.10    6.10    6.10    6.08    6.06    6.03    5.99
   2     5.82    7.32    7.23    6.92    6.61    6.37    6.45    6.77    6.95    5.75
   3     5.55    6.68    6.45    5.89    5.00    3.64    4.07    5.30    5.99    5.46
   4     5.24    6.04    5.84    5.44    4.90    4.22    4.40    5.05    5.47    5.14
   5     4.89    5.37    5.29    5.10    4.90    4.74    4.75    4.88    4.99    4.80
   6     4.53    4.72    4.69    4.60    4.52    4.47    4.46    4.48    4.50    4.44
   7     4.16    4.01    3.95    3.89    3.85    3.83    3.82    3.84    3.88    4.09
   8     3.80    3.18    3.04    2.97    2.92    2.91    2.93    2.98    3.11    3.74
   9     3.46    2.32    2.02    1.83    1.75    1.74    1.81    1.98    2.28    3.42
  10     3.15    3.08    3.03    2.99    2.96    2.96    2.98    3.01    3.06    3.13
1
              HEAD IN LAYER   3 AT END OF TIME STEP   5 IN STRESS PERIOD    2
  ---------------------------------------------------------------------------

           1       2       3       4       5       6       7       8       9      10
 ...................................................................................
   1    -6.92   -6.97   -7.06   -7.18   -7.31   -7.41   -7.42   -7.35   -7.27   -7.22
   2    -6.98   -7.07   -7.26   -7.57   -8.02   -8.50   -8.43   -8.02   -7.67   -7.49
   3    -6.92   -7.10   -7.51   -8.35  -10.05  -13.27  -12.30   -9.70   -8.40   -7.86
   4    -6.41   -6.58   -6.94   -7.51   -8.43   -9.96   -9.58   -8.32   -7.64   -7.33
   5    -5.50   -5.60   -5.80   -6.08   -6.42   -6.72   -6.73   -6.52   -6.32   -6.21
   6    -4.46   -4.51   -4.60   -4.73   -4.85   -4.95   -4.99   -4.97   -4.93   -4.90
   7    -3.51   -3.53   -3.57   -3.63   -3.69   -3.73   -3.76   -3.77   -3.77   -3.76
   8    -2.75   -2.76   -2.79   -2.81   -2.84   -2.86   -2.88   -2.89   -2.90   -2.90
   9    -2.23   -2.24   -2.25   -2.27   -2.29   -2.30   -2.31   -2.32   -2.32   -2.32
  10    -1.97   -1.97   -1.98   -1.99   -2.00   -2.01   -2.02   -2.03   -2.03   -2.03

 HEAD WILL BE SAVED ON UNIT   21 AT END OF TIME STEP   5, STRESS PERIOD    2
1
  VOLUMETRIC BUDGET FOR ENTIRE MODEL AT END OF TIME STEP  5 IN STRESS PERIOD   2
  ------------------------------------------------------------------------------

     CUMULATIVE VOLUMES      L**3       RATES FOR THIS TIME STEP      L**3/T
     ------------------                 ------------------------

           IN:                                      IN:
           ---                                      ---
             STORAGE =     1877083.6250               STORAGE =        6379.5386
       CONSTANT HEAD =           0.0000         CONSTANT HEAD =           0.0000
               WELLS =     7799136.5000                 WELLS =       30000.0000
    INST. IB STORAGE =     3241651.5000      INST. IB STORAGE =       13859.8018
    DELAY IB STORAGE =     2591362.7500      DELAY IB STORAGE =        9342.6953

            TOTAL IN =    15509234.0000              TOTAL IN =       59582.0352

          OUT:                                     OUT:
          ----                                     ----
             STORAGE =           0.0000               STORAGE =           0.0000
       CONSTANT HEAD =     7740108.5000         CONSTANT HEAD =       29582.0020
               WELLS =     7769136.5000                 WELLS =       30000.0000
    INST. IB STORAGE =           0.0000      INST. IB STORAGE =           0.0000
    DELAY IB STORAGE =           0.0000      DELAY IB STORAGE =           0.0000

           TOTAL OUT =    15509245.0000             TOTAL OUT =       59582.0000

            IN - OUT =         -11.0000              IN - OUT =       3.5156E-02

 PERCENT DISCREPANCY =           0.00     PERCENT DISCREPANCY =           0.00






          TIME SUMMARY AT END OF TIME STEP   5 IN STRESS PERIOD    2
                    SECONDS     MINUTES      HOURS       DAYS        YEARS
                    -----------------------------------------------------------
   TIME STEP LENGTH 7.06678E+06 1.17780E+05  1963.0      81.791     0.22393    
 STRESS PERIOD TIME 2.23751E+07 3.72919E+05  6215.3      258.97     0.70902    
         TOTAL TIME 2.24615E+07 3.74359E+05  6239.3      259.97     0.71176    
1
 
 SOLVING FOR HEAD 
    37 ITERATIONS FOR TIME STEP   6 IN STRESS PERIOD    2

 MAXIMUM HEAD CHANGE FOR EACH ITERATION:

    HEAD CHANGE   HEAD CHANGE   HEAD CHANGE   HEAD CHANGE   HEAD CHANGE
  LAYER,ROW,COL LAYER,ROW,COL LAYER,ROW,COL LAYER,ROW,COL LAYER,ROW,COL
 ----------------------------------------------------------------------
    -0.8189       -0.6381        -1.435       -0.8187        0.3140    
  (  3,  3,  7) (  3, 10,  1) (  3, 10, 10) (  3, 10,  1) (  2,  1, 10)
    -0.2819        0.4193E-01    0.1186        0.1436        0.2464E-01
  (  2,  1, 10) (  3, 10, 10) (  3, 10,  1) (  3, 10, 10) (  3, 10, 10)
     0.2374E-01    0.1618E-01    0.2720E-01    0.2724E-01    0.9378E-02
  (  2,  3,  1) (  2,  1,  2) (  3, 10, 10) (  3, 10,  1) (  3, 10,  1)
     0.5743E-02    0.1521E-02    0.4075E-02    0.5319E-02    0.1029E-02
  (  2,  2,  1) (  3, 10, 10) (  3, 10,  1) (  3, 10, 10) (  3, 10, 10)
     0.4923E-03    0.4032E-03    0.1173E-02    0.1133E-02    0.4213E-03
  (  2,  3,  1) (  3, 10,  1) (  3, 10, 10) (  3, 10,  1) (  3, 10,  1)
     0.2433E-03   -0.6681E-04    0.1562E-03    0.2334E-03    0.5605E-04
  (  2,  3,  1) (  3,  3,  6) (  3, 10,  1) (  3, 10,  6) (  3, 10,  9)
    -0.3456E-04   -0.2740E-04    0.3033E-04    0.4999E-04    0.4076E-04
  (  2,  9,  1) (  3,  3,  6) (  3, 10,  3) (  3, 10,  1) (  3, 10,  1)
     0.1222E-04   -0.4254E-05
  (  2,  3,  1) (  2, 10,  2)


 OUTPUT CONTROL FOR STRESS PERIOD    2   TIME STEP   6
    PRINT BUDGET
    PRINT HEAD FOR ALL LAYERS
    SAVE HEAD FOR ALL LAYERS
    SAVE DRAWDOWN FOR ALL LAYERS
1
              HEAD IN LAYER   1 AT END OF TIME STEP   6 IN STRESS PERIOD    2
  ---------------------------------------------------------------------------

           1       2       3       4       5       6       7       8       9      10
 ...................................................................................
   1    22.58   22.23   21.58   21.16   20.96   20.96   21.16   21.58   22.23   22.58
   2    21.54   21.05   20.63   20.33   20.18   20.18   20.33   20.63   21.04   21.54
   3    20.03   19.55   19.18   18.94   18.82   18.82   18.94   19.18   19.54   20.03
   4    17.97   17.54   17.25   17.06   16.97   16.97   17.06   17.24   17.54   17.97
   5    15.04   14.95   14.85   14.77   14.73   14.73   14.77   14.85   14.95   15.04
   6    12.40   12.37   12.33   12.30   12.28   12.28   12.30   12.33   12.37   12.40
   7     9.81    9.78    9.74    9.70    9.68    9.68    9.70    9.74    9.78    9.80
   8     7.24    7.18    7.08    6.97    6.91    6.91    6.97    7.07    7.18    7.24
   9     4.84    4.66    4.34    3.97    3.82    3.82    3.97    4.34    4.66    4.84
  10     3.09    2.64    1.67    0.00    0.00    0.00    0.00    1.67    2.64    3.09
1
              HEAD IN LAYER   2 AT END OF TIME STEP   6 IN STRESS PERIOD    2
  ---------------------------------------------------------------------------

           1       2       3       4       5       6       7       8       9      10
 ...................................................................................
   1     5.13    5.18    5.21    5.22    5.22    5.22    5.20    5.17    5.14    5.08
   2     4.89    6.63    6.55    6.22    5.87    5.61    5.71    6.04    6.22    4.81
   3     4.58    5.93    5.69    5.08    4.11    2.70    3.15    4.45    5.17    4.48
   4     4.22    5.18    4.99    4.57    3.99    3.28    3.47    4.16    4.61    4.11
   5     3.81    4.31    4.25    4.08    3.90    3.77    3.79    3.93    4.02    3.71
   6     3.39    3.49    3.45    3.38    3.31    3.27    3.26    3.29    3.32    3.30
   7     2.96    2.64    2.56    2.51    2.47    2.45    2.45    2.47    2.54    2.89
   8     2.55    1.71    1.54    1.46    1.42    1.41    1.43    1.49    1.65    2.49
   9     2.16    0.78    0.45    0.26    0.18    0.18    0.25    0.42    0.75    2.12
  10     1.81    1.74    1.68    1.64    1.61    1.61    1.63    1.67    1.73    1.80
1
              HEAD IN LAYER   3 AT END OF TIME STEP   6 IN STRESS PERIOD    2
  ---------------------------------------------------------------------------

           1       2       3       4       5       6       7       8       9      10
 ...................................................................................
   1    -7.24   -7.31   -7.45   -7.64   -7.85   -8.00   -8.02   -7.94   -7.83   -7.76
   2    -7.36   -7.50   -7.79   -8.25   -8.83   -9.37   -9.31   -8.86   -8.45   -8.23
   3    -7.46   -7.70   -8.26   -9.31  -11.18  -14.49  -13.52  -10.83   -9.42   -8.81
   4    -7.25   -7.41   -7.79   -8.49   -9.59  -11.20  -10.82   -9.47   -8.65   -8.26
   5    -6.78   -6.87   -7.04   -7.29   -7.58   -7.84   -7.82   -7.63   -7.44   -7.33
   6    -6.13   -6.17   -6.25   -6.36   -6.47   -6.55   -6.57   -6.55   -6.50   -6.48
   7    -5.51   -5.53   -5.57   -5.61   -5.66   -5.69   -5.71   -5.72   -5.71   -5.71
   8    -5.00   -5.02   -5.03   -5.06   -5.08   -5.10   -5.11   -5.12   -5.12   -5.12
   9    -4.66   -4.66   -4.67   -4.69   -4.70   -4.71   -4.72   -4.72   -4.73   -4.73
  10    -4.48   -4.48   -4.49   -4.49   -4.50   -4.51   -4.52   -4.52   -4.52   -4.53

 HEAD WILL BE SAVED ON UNIT   21 AT END OF TIME STEP   6, STRESS PERIOD    2

 DRAWDOWN WILL BE SAVED ON UNIT   22 AT END OF TIME STEP   6, STRESS PERIOD    2
1
  VOLUMETRIC BUDGET FOR ENTIRE MODEL AT END OF TIME STEP  6 IN STRESS PERIOD   2
  ------------------------------------------------------------------------------

     CUMULATIVE VOLUMES      L**3       RATES FOR THIS TIME STEP      L**3/T
     ------------------                 ------------------------

           IN:                                      IN:
           ---                                      ---
             STORAGE =     2509994.7500               STORAGE =        5952.3955
       CONSTANT HEAD =           0.0000         CONSTANT HEAD =           0.0000
               WELLS =    10989000.0000                 WELLS =       30000.0000
    INST. IB STORAGE =     4623876.0000      INST. IB STORAGE =       12999.5332
    DELAY IB STORAGE =     3701481.0000      DELAY IB STORAGE =       10440.4307

            TOTAL IN =    21824352.0000              TOTAL IN =       59392.3594

          OUT:                                     OUT:
          ----                                     ----
             STORAGE =           0.0000               STORAGE =           0.0000
       CONSTANT HEAD =    10865367.0000         CONSTANT HEAD =       29392.4043
               WELLS =    10959000.0000                 WELLS =       30000.0000
    INST. IB STORAGE =           0.0000      INST. IB STORAGE =           0.0000
    DELAY IB STORAGE =           0.0000      DELAY IB STORAGE =           0.0000

           TOTAL OUT =    21824368.0000             TOTAL OUT =       59392.4062

            IN - OUT =         -16.0000              IN - OUT =      -4.6875E-02

 PERCENT DISCREPANCY =           0.00     PERCENT DISCREPANCY =           0.00






          TIME SUMMARY AT END OF TIME STEP   6 IN STRESS PERIOD    2
                    SECONDS     MINUTES      HOURS       DAYS        YEARS
                    -----------------------------------------------------------
   TIME STEP LENGTH 9.18681E+06 1.53113E+05  2551.9      106.33     0.29111    
 STRESS PERIOD TIME 3.15619E+07 5.26032E+05  8767.2      365.30      1.0001    
         TOTAL TIME 3.16483E+07 5.27472E+05  8791.2      366.30      1.0029    
1

                               VOLUMETRIC BUDGET FOR SYSTEMS OF DELAY INTERBEDS
                                          AT END OF TIME STEP  6 IN STRESS PERIOD  2

          |   C U M U L A T I V E   V O L U M E S   L**3           | R A T E S   F O R  T H I S  T I M E  S T E P   L**3/T  |
   SYSTEM |    CHANGE IN     BOUNDARY                    PERCENT   |    CHANGE IN     BOUNDARY                    PERCENT   |
   NUMBER |     STORAGE        FLOW           SUM      DISCREPANCY |     STORAGE        FLOW           SUM      DISCREPANCY |
  --------|--------------------------------------------------------|--------------------------------------------------------|
      1     3283.5        -3283.5       -0.24414E-03   -0.74354E-05     12.984        -12.984        0.28610E-05    0.22035E-04
      2    0.36982E+07   -0.36982E+07   -0.25000       -0.67600E-05     10427.        -10427.       -0.29297E-02   -0.28096E-04
  --------|--------------------------------------------------------|--------------------------------------------------------|
 TOTALS:    0.37015E+07   -0.37015E+07   -0.25000       -0.67541E-05     10440.        -10440.       -0.29297E-02   -0.28061E-04
1
                            STRESS PERIOD NO.    3, LENGTH =   365.3000    
                            -----------------------------------------------

                              NUMBER OF TIME STEPS =     6

                               MULTIPLIER FOR DELT =     1.300

                            INITIAL TIME STEP SIZE =   28.63744    

 REUSING NON-PARAMETER WELLS FROM LAST STRESS PERIOD

     14 WELLS
 
 SOLVING FOR HEAD 

    40 ITERATIONS FOR TIME STEP   1 IN STRESS PERIOD    3

 MAXIMUM HEAD CHANGE FOR EACH ITERATION:

    HEAD CHANGE   HEAD CHANGE   HEAD CHANGE   HEAD CHANGE   HEAD CHANGE
  LAYER,ROW,COL LAYER,ROW,COL LAYER,ROW,COL LAYER,ROW,COL LAYER,ROW,COL
 ----------------------------------------------------------------------
     0.6802        0.5864       -0.7013       -0.5978        0.4483    
  (  3,  3,  6) (  3,  3,  7) (  3,  3,  7) (  3,  2, 10) (  3,  1, 10)
    -0.8701E-01   -0.4014E-01   -0.4450E-01   -0.3335E-01   -0.2522E-01
  (  3,  3,  6) (  3,  3,  6) (  3,  3,  6) (  3,  3,  6) (  3,  3,  6)
    -0.1778E-01   -0.1605E-01   -0.1199E-01   -0.8821E-02   -0.6798E-02
  (  3,  3,  6) (  3,  3,  6) (  3,  3,  6) (  3,  3,  6) (  3,  3,  6)
    -0.4757E-02   -0.4315E-02   -0.3183E-02   -0.2393E-02   -0.1813E-02
  (  3,  3,  6) (  3,  3,  6) (  3,  3,  6) (  3,  3,  6) (  3,  3,  6)
    -0.1306E-02   -0.1145E-02   -0.8658E-03   -0.6403E-03   -0.4960E-03
  (  3,  3,  6) (  3,  3,  6) (  3,  3,  6) (  3,  3,  6) (  3,  3,  6)
    -0.3528E-03   -0.3121E-03   -0.2328E-03   -0.1756E-03   -0.1336E-03
  (  3,  3,  6) (  3,  3,  6) (  3,  3,  6) (  3,  3,  6) (  3,  3,  6)
    -0.9827E-04   -0.8355E-04   -0.6418E-04   -0.4752E-04   -0.3707E-04
  (  3,  3,  6) (  3,  3,  6) (  3,  3,  6) (  3,  3,  6) (  3,  3,  6)
    -0.2644E-04   -0.2234E-04   -0.1635E-04   -0.1091E-04   -0.6304E-05
  (  3,  3,  6) (  3,  3,  6) (  3,  3,  6) (  3,  3,  6) (  3,  3,  6)


 OUTPUT CONTROL FOR STRESS PERIOD    3   TIME STEP   1
    SAVE HEAD FOR ALL LAYERS

 HEAD WILL BE SAVED ON UNIT   21 AT END OF TIME STEP   1, STRESS PERIOD    3
 
 SOLVING FOR HEAD 
    39 ITERATIONS FOR TIME STEP   2 IN STRESS PERIOD    3

 MAXIMUM HEAD CHANGE FOR EACH ITERATION:

    HEAD CHANGE   HEAD CHANGE   HEAD CHANGE   HEAD CHANGE   HEAD CHANGE
  LAYER,ROW,COL LAYER,ROW,COL LAYER,ROW,COL LAYER,ROW,COL LAYER,ROW,COL
 ----------------------------------------------------------------------
     0.7728        0.3233       -0.6986        0.2183       -0.1350    
  (  3,  3,  6) (  3,  2,  7) (  3,  3,  6) (  3,  1,  3) (  3,  3,  6)
    -0.4554E-01   -0.6036E-01   -0.4412E-01   -0.3226E-01   -0.2412E-01
  (  2,  4,  1) (  3,  3,  6) (  3,  3,  6) (  3,  3,  6) (  3,  3,  6)
    -0.1632E-01   -0.1557E-01   -0.1162E-01   -0.8318E-02   -0.6369E-02
  (  3,  3,  6) (  3,  3,  6) (  3,  3,  6) (  3,  3,  6) (  3,  3,  6)
    -0.4275E-02   -0.4090E-02   -0.3005E-02   -0.2215E-02   -0.1661E-02
  (  3,  3,  6) (  3,  3,  6) (  3,  3,  6) (  3,  3,  6) (  3,  3,  6)
    -0.1161E-02   -0.1059E-02   -0.8028E-03   -0.5810E-03   -0.4490E-03
  (  3,  3,  6) (  3,  3,  6) (  3,  3,  6) (  3,  3,  6) (  3,  3,  6)
    -0.3090E-03   -0.2845E-03   -0.2108E-03   -0.1590E-03   -0.1185E-03
  (  3,  3,  6) (  3,  3,  6) (  3,  3,  6) (  3,  3,  6) (  3,  3,  6)
    -0.8593E-04   -0.7491E-04   -0.5815E-04   -0.4213E-04   -0.3256E-04
  (  3,  3,  6) (  3,  3,  6) (  3,  3,  6) (  3,  3,  6) (  3,  3,  6)
    -0.2304E-04   -0.1941E-04   -0.1377E-04   -0.9153E-05
  (  3,  3,  6) (  3,  3,  6) (  3,  3,  6) (  3,  3,  6)


 OUTPUT CONTROL FOR STRESS PERIOD    3   TIME STEP   2
    SAVE HEAD FOR ALL LAYERS

 HEAD WILL BE SAVED ON UNIT   21 AT END OF TIME STEP   2, STRESS PERIOD    3
 
 SOLVING FOR HEAD 
    39 ITERATIONS FOR TIME STEP   3 IN STRESS PERIOD    3

 MAXIMUM HEAD CHANGE FOR EACH ITERATION:

    HEAD CHANGE   HEAD CHANGE   HEAD CHANGE   HEAD CHANGE   HEAD CHANGE
  LAYER,ROW,COL LAYER,ROW,COL LAYER,ROW,COL LAYER,ROW,COL LAYER,ROW,COL
 ----------------------------------------------------------------------
     0.5132       -0.1523       -0.5115        0.2451       -0.1099    
  (  3,  3,  6) (  3, 10,  1) (  3,  3,  7) (  3,  1, 10) (  3,  3,  6)
    -0.4542E-01   -0.5970E-01   -0.4452E-01   -0.3102E-01   -0.2298E-01
  (  3,  3,  7) (  3,  3,  6) (  3,  3,  6) (  3,  3,  6) (  3,  3,  6)
    -0.1463E-01   -0.1501E-01   -0.1122E-01   -0.7800E-02   -0.5885E-02
  (  3,  3,  6) (  3,  3,  6) (  3,  3,  6) (  3,  3,  6) (  3,  3,  6)
    -0.3766E-02   -0.3825E-02   -0.2830E-02   -0.2025E-02   -0.1504E-02
  (  3,  3,  6) (  3,  3,  6) (  3,  3,  6) (  3,  3,  6) (  3,  3,  6)
    -0.1008E-02   -0.9686E-03   -0.7390E-03   -0.5212E-03   -0.3990E-03
  (  3,  3,  6) (  3,  3,  6) (  3,  3,  6) (  3,  3,  6) (  3,  3,  6)
    -0.2660E-03   -0.2545E-03   -0.1919E-03   -0.1410E-03   -0.1039E-03
  (  3,  3,  6) (  3,  3,  6) (  3,  3,  6) (  3,  3,  6) (  3,  3,  6)
    -0.7338E-04   -0.6695E-04   -0.5244E-04   -0.3671E-04   -0.2862E-04
  (  3,  3,  6) (  3,  3,  6) (  3,  3,  6) (  3,  3,  6) (  3,  3,  6)
    -0.1945E-04   -0.1741E-04   -0.1219E-04   -0.8243E-05
  (  3,  3,  6) (  3,  3,  6) (  3,  3,  6) (  3,  3,  6)


 OUTPUT CONTROL FOR STRESS PERIOD    3   TIME STEP   3
    SAVE HEAD FOR ALL LAYERS

 HEAD WILL BE SAVED ON UNIT   21 AT END OF TIME STEP   3, STRESS PERIOD    3
 
 SOLVING FOR HEAD 
    38 ITERATIONS FOR TIME STEP   4 IN STRESS PERIOD    3

 MAXIMUM HEAD CHANGE FOR EACH ITERATION:

    HEAD CHANGE   HEAD CHANGE   HEAD CHANGE   HEAD CHANGE   HEAD CHANGE
  LAYER,ROW,COL LAYER,ROW,COL LAYER,ROW,COL LAYER,ROW,COL LAYER,ROW,COL
 ----------------------------------------------------------------------
     0.4158       -0.1148       -0.3916       -0.5210E-01   -0.8481E-01
  (  3,  3,  6) (  3, 10,  1) (  3,  3,  7) (  3, 10,  1) (  3,  3,  6)
    -0.4846E-01   -0.5736E-01   -0.4264E-01   -0.2836E-01   -0.2049E-01
  (  3,  3,  6) (  3,  3,  6) (  3,  3,  6) (  3,  3,  6) (  3,  3,  6)
    -0.1226E-01   -0.1353E-01   -0.1034E-01   -0.6862E-02   -0.5124E-02
  (  3,  3,  6) (  3,  3,  6) (  3,  3,  6) (  3,  3,  6) (  3,  3,  6)
    -0.3086E-02   -0.3345E-02   -0.2520E-02   -0.1749E-02   -0.1274E-02
  (  3,  3,  6) (  3,  3,  6) (  3,  3,  6) (  3,  3,  6) (  3,  3,  6)
    -0.8207E-03   -0.8262E-03   -0.6453E-03   -0.4393E-03   -0.3348E-03
  (  3,  3,  6) (  3,  3,  6) (  3,  3,  6) (  3,  3,  6) (  3,  3,  6)
    -0.2143E-03   -0.2145E-03   -0.1646E-03   -0.1185E-03   -0.8504E-04
  (  3,  3,  6) (  3,  3,  6) (  3,  3,  6) (  3,  3,  6) (  3,  3,  6)
    -0.5919E-04   -0.5636E-04   -0.4561E-04   -0.3148E-04   -0.2386E-04
  (  3,  3,  6) (  3,  3,  6) (  3,  3,  6) (  3,  3,  6) (  3,  3,  6)
    -0.1599E-04   -0.1243E-04   -0.9702E-05
  (  3,  3,  6) (  3,  3,  6) (  3,  3,  6)


 OUTPUT CONTROL FOR STRESS PERIOD    3   TIME STEP   4
    SAVE HEAD FOR ALL LAYERS

 HEAD WILL BE SAVED ON UNIT   21 AT END OF TIME STEP   4, STRESS PERIOD    3
 
 SOLVING FOR HEAD 
    38 ITERATIONS FOR TIME STEP   5 IN STRESS PERIOD    3

 MAXIMUM HEAD CHANGE FOR EACH ITERATION:

    HEAD CHANGE   HEAD CHANGE   HEAD CHANGE   HEAD CHANGE   HEAD CHANGE
  LAYER,ROW,COL LAYER,ROW,COL LAYER,ROW,COL LAYER,ROW,COL LAYER,ROW,COL
 ----------------------------------------------------------------------
     0.2834       -0.1703       -0.2196       -0.7777E-01   -0.7217E-01
  (  3,  3,  7) (  3,  3,  7) (  3,  3,  7) (  3,  4,  6) (  3,  3,  6)
    -0.4206E-01   -0.5049E-01   -0.3936E-01   -0.2444E-01   -0.1720E-01
  (  2,  6,  1) (  3,  3,  6) (  3,  3,  7) (  3,  3,  6) (  3,  3,  7)
    -0.9555E-02   -0.1138E-01   -0.9011E-02   -0.5708E-02   -0.4174E-02
  (  3,  3,  6) (  3,  3,  7) (  3,  3,  6) (  3,  3,  6) (  3,  3,  6)
    -0.2361E-02   -0.2715E-02   -0.2123E-02   -0.1422E-02   -0.1011E-02
  (  3,  3,  6) (  3,  3,  6) (  3,  3,  6) (  3,  3,  6) (  3,  3,  6)
    -0.6272E-03   -0.6590E-03   -0.5355E-03   -0.3503E-03   -0.2645E-03
  (  3,  3,  6) (  3,  3,  6) (  3,  3,  6) (  3,  3,  6) (  3,  3,  6)
    -0.1624E-03   -0.1694E-03   -0.1367E-03   -0.9576E-04   -0.6566E-04
  (  3,  3,  6) (  3,  3,  6) (  3,  3,  6) (  3,  3,  6) (  3,  3,  6)
    -0.4509E-04   -0.4524E-04   -0.3821E-04   -0.2574E-04   -0.1892E-04
  (  3,  3,  6) (  3,  3,  6) (  3,  3,  6) (  3,  3,  6) (  3,  3,  6)
    -0.1215E-04   -0.1013E-04   -0.6235E-05
  (  3,  3,  6) (  3,  3,  6) (  3,  3,  6)


 OUTPUT CONTROL FOR STRESS PERIOD    3   TIME STEP   5
    SAVE HEAD FOR ALL LAYERS

 HEAD WILL BE SAVED ON UNIT   21 AT END OF TIME STEP   5, STRESS PERIOD    3
 
 SOLVING FOR HEAD 
    36 ITERATIONS FOR TIME STEP   6 IN STRESS PERIOD    3

 MAXIMUM HEAD CHANGE FOR EACH ITERATION:

    HEAD CHANGE   HEAD CHANGE   HEAD CHANGE   HEAD CHANGE   HEAD CHANGE
  LAYER,ROW,COL LAYER,ROW,COL LAYER,ROW,COL LAYER,ROW,COL LAYER,ROW,COL
 ----------------------------------------------------------------------
    -0.2083       -0.2112       -0.1394       -0.8949E-01   -0.6037E-01
  (  3,  1,  1) (  3,  3,  6) (  3, 10, 10) (  3,  3,  7) (  3,  3,  6)
    -0.4943E-01   -0.3984E-01   -0.3349E-01   -0.1937E-01   -0.1329E-01
  (  2,  6,  1) (  3,  3,  7) (  3,  3,  7) (  3,  3,  6) (  3,  3,  7)
    -0.6743E-02   -0.8643E-02   -0.7165E-02   -0.4386E-02   -0.3092E-02
  (  3,  3,  6) (  3,  3,  7) (  3,  3,  6) (  3,  3,  6) (  3,  3,  6)
    -0.1654E-02   -0.1994E-02   -0.1655E-02   -0.1066E-02   -0.7460E-03
  (  3,  3,  6) (  3,  3,  6) (  3,  3,  6) (  3,  3,  6) (  3,  3,  6)
    -0.4400E-03   -0.4754E-03   -0.4099E-03   -0.2668E-03   -0.1927E-03
  (  3,  3,  6) (  3,  3,  6) (  3,  3,  6) (  3,  3,  6) (  3,  3,  6)
    -0.1132E-03   -0.1213E-03   -0.1074E-03   -0.7303E-04   -0.4856E-04
  (  3,  3,  6) (  3,  3,  6) (  3,  3,  6) (  3,  3,  6) (  3,  3,  6)
    -0.3222E-04   -0.3412E-04   -0.3079E-04   -0.2025E-04   -0.1415E-04
  (  3,  3,  6) (  3,  3,  6) (  3,  3,  6) (  3,  3,  6) (  3,  3,  6)
    -0.8103E-05
  (  3,  3,  6)


 OUTPUT CONTROL FOR STRESS PERIOD    3   TIME STEP   6
    PRINT BUDGET
    PRINT HEAD FOR ALL LAYERS
    SAVE HEAD FOR ALL LAYERS
    SAVE DRAWDOWN FOR ALL LAYERS
1
              HEAD IN LAYER   1 AT END OF TIME STEP   6 IN STRESS PERIOD    3
  ---------------------------------------------------------------------------

           1       2       3       4       5       6       7       8       9      10
 ...................................................................................
   1    22.46   22.12   21.46   21.05   20.85   20.84   21.04   21.46   22.12   22.46
   2    21.43   20.93   20.51   20.22   20.07   20.07   20.21   20.51   20.93   21.42
   3    19.92   19.43   19.07   18.82   18.70   18.70   18.82   19.06   19.42   19.91
   4    17.86   17.43   17.13   16.94   16.85   16.85   16.94   17.13   17.42   17.85
   5    14.93   14.84   14.74   14.66   14.62   14.62   14.66   14.74   14.84   14.93
   6    12.29   12.27   12.23   12.19   12.17   12.17   12.19   12.22   12.26   12.29
   7     9.71    9.68    9.64    9.60    9.58    9.58    9.60    9.64    9.68    9.70
   8     7.15    7.09    6.99    6.89    6.83    6.83    6.89    6.99    7.09    7.15
   9     4.76    4.59    4.27    3.92    3.77    3.77    3.92    4.27    4.59    4.76
  10     3.03    2.59    1.64    0.00    0.00    0.00    0.00    1.64    2.59    3.03
1
              HEAD IN LAYER   2 AT END OF TIME STEP   6 IN STRESS PERIOD    3
  ---------------------------------------------------------------------------

           1       2       3       4       5       6       7       8       9      10
 ...................................................................................
   1     3.92    3.97    3.99    4.00    4.00    3.99    3.97    3.94    3.90    3.84
   2     3.68    5.60    5.50    5.09    4.67    4.35    4.43    4.77    4.95    3.55
   3     3.36    4.84    4.55    3.82    2.75    1.26    1.69    3.01    3.79    3.20
   4     2.98    4.09    3.85    3.33    2.65    1.87    2.06    2.77    3.26    2.82
   5     2.56    3.24    3.17    2.95    2.72    2.54    2.55    2.70    2.80    2.41
   6     2.12    2.35    2.31    2.23    2.15    2.09    2.09    2.12    2.14    1.99
   7     1.67    1.34    1.26    1.21    1.18    1.16    1.16    1.18    1.25    1.56
   8     1.22    0.26    0.07    0.00   -0.04   -0.05   -0.03    0.03    0.21    1.15
   9     0.81   -0.76   -1.12   -1.30   -1.38   -1.39   -1.32   -1.14   -0.79    0.76
  10     0.44    0.37    0.30    0.26    0.23    0.23    0.25    0.29    0.35    0.42
1
              HEAD IN LAYER   3 AT END OF TIME STEP   6 IN STRESS PERIOD    3
  ---------------------------------------------------------------------------

           1       2       3       4       5       6       7       8       9      10
 ...................................................................................
   1    -8.61   -8.73   -8.96   -9.27   -9.59   -9.83   -9.91   -9.85   -9.74   -9.67
   2    -8.85   -9.05   -9.46  -10.07  -10.80  -11.45  -11.45  -11.00  -10.58  -10.34
   3    -9.05   -9.37  -10.09  -11.33  -13.39  -16.85  -15.92  -13.21  -11.75  -11.11
   4    -8.74   -8.99   -9.54  -10.43  -11.71  -13.45  -13.11  -11.74  -10.87  -10.44
   5    -8.11   -8.25   -8.51   -8.88   -9.31   -9.68   -9.70   -9.48   -9.25   -9.11
   6    -7.54   -7.59   -7.70   -7.84   -7.98   -8.09   -8.13   -8.10   -8.06   -8.02
   7    -7.15   -7.17   -7.21   -7.26   -7.31   -7.35   -7.37   -7.37   -7.37   -7.36
   8    -6.94   -6.95   -6.97   -6.99   -7.01   -7.03   -7.03   -7.04   -7.04   -7.04
   9    -6.79   -6.80   -6.81   -6.82   -6.83   -6.84   -6.84   -6.85   -6.85   -6.85
  10    -6.71   -6.71   -6.72   -6.72   -6.73   -6.74   -6.74   -6.75   -6.75   -6.75

 HEAD WILL BE SAVED ON UNIT   21 AT END OF TIME STEP   6, STRESS PERIOD    3

 DRAWDOWN WILL BE SAVED ON UNIT   22 AT END OF TIME STEP   6, STRESS PERIOD    3
1
  VOLUMETRIC BUDGET FOR ENTIRE MODEL AT END OF TIME STEP  6 IN STRESS PERIOD   3
  ------------------------------------------------------------------------------

     CUMULATIVE VOLUMES      L**3       RATES FOR THIS TIME STEP      L**3/T
     ------------------                 ------------------------

           IN:                                      IN:
           ---                                      ---
             STORAGE =     4553664.5000               STORAGE =        5469.9536
       CONSTANT HEAD =           0.0000         CONSTANT HEAD =           0.0000
               WELLS =    21948000.0000                 WELLS =       30000.0000
    INST. IB STORAGE =     8600031.0000      INST. IB STORAGE =        9674.6836
    DELAY IB STORAGE =     8300490.0000      DELAY IB STORAGE =       13732.3115

            TOTAL IN =    43402184.0000              TOTAL IN =       58876.9492

          OUT:                                     OUT:
          ----                                     ----
             STORAGE =           0.0000               STORAGE =           0.0000
       CONSTANT HEAD =    21484212.0000         CONSTANT HEAD =       28877.0059
               WELLS =    21918000.0000                 WELLS =       30000.0000
    INST. IB STORAGE =           0.0000      INST. IB STORAGE =           0.0000
    DELAY IB STORAGE =           0.0000      DELAY IB STORAGE =           0.0000

           TOTAL OUT =    43402212.0000             TOTAL OUT =       58877.0078

            IN - OUT =         -28.0000              IN - OUT =      -5.8594E-02

 PERCENT DISCREPANCY =           0.00     PERCENT DISCREPANCY =           0.00






          TIME SUMMARY AT END OF TIME STEP   6 IN STRESS PERIOD    3
                    SECONDS     MINUTES      HOURS       DAYS        YEARS
                    -----------------------------------------------------------
   TIME STEP LENGTH 9.18681E+06 1.53113E+05  2551.9      106.33     0.29111    
 STRESS PERIOD TIME 3.15619E+07 5.26032E+05  8767.2      365.30      1.0001    
         TOTAL TIME 6.32102E+07 1.05350E+06  17558.      731.60      2.0030    
1

                               VOLUMETRIC BUDGET FOR SYSTEMS OF DELAY INTERBEDS
                                          AT END OF TIME STEP  6 IN STRESS PERIOD  3

          |   C U M U L A T I V E   V O L U M E S   L**3           | R A T E S   F O R  T H I S  T I M E  S T E P   L**3/T  |
   SYSTEM |    CHANGE IN     BOUNDARY                    PERCENT   |    CHANGE IN     BOUNDARY                    PERCENT   |
   NUMBER |     STORAGE        FLOW           SUM      DISCREPANCY |     STORAGE        FLOW           SUM      DISCREPANCY |
  --------|--------------------------------------------------------|--------------------------------------------------------|
      1     8100.7        -8100.7        0.48828E-03    0.60276E-05     13.696        -13.696        0.28610E-05    0.20890E-04
      2    0.82924E+07   -0.82924E+07     0.0000         0.0000         13719.        -13719.        0.19531E-02    0.14237E-04
  --------|--------------------------------------------------------|--------------------------------------------------------|
 TOTALS:    0.83005E+07   -0.83005E+07     0.0000         0.0000         13732.        -13732.        0.19531E-02    0.14223E-04
1
                            STRESS PERIOD NO.    4, LENGTH =   365.3000    
                            -----------------------------------------------

                              NUMBER OF TIME STEPS =     6

                               MULTIPLIER FOR DELT =     1.300

                            INITIAL TIME STEP SIZE =   28.63744    

 REUSING NON-PARAMETER WELLS FROM LAST STRESS PERIOD

     14 WELLS
 
 SOLVING FOR HEAD 

    37 ITERATIONS FOR TIME STEP   1 IN STRESS PERIOD    4

 MAXIMUM HEAD CHANGE FOR EACH ITERATION:

    HEAD CHANGE   HEAD CHANGE   HEAD CHANGE   HEAD CHANGE   HEAD CHANGE
  LAYER,ROW,COL LAYER,ROW,COL LAYER,ROW,COL LAYER,ROW,COL LAYER,ROW,COL
 ----------------------------------------------------------------------
      1.641         2.956         1.376        -2.224        -2.032    
  (  3,  3,  6) (  3,  2, 10) (  3,  1,  1) (  3,  2, 10) (  3,  1,  5)
     0.1624       -0.3594        0.1906       -0.2723E-01   -0.3011E-01
  (  3,  7, 10) (  3,  3, 10) (  3,  1, 10) (  3,  2,  5) (  3,  3,  6)
    -0.2026E-01   -0.1765E-01   -0.1427E-01   -0.8182E-02   -0.6542E-02
  (  3,  3,  6) (  3,  3,  6) (  3,  3,  6) (  3,  3,  6) (  3,  3,  6)
    -0.4312E-02    0.2167E-02    0.1564E-02    0.1173E-02    0.8581E-03
  (  3,  3,  6) (  3,  1,  1) (  3,  1,  3) (  3,  1, 10) (  3,  1,  3)
     0.5911E-03    0.5445E-03    0.3883E-03    0.2808E-03    0.2188E-03
  (  3,  1, 10) (  3,  1, 10) (  3,  1, 10) (  3,  1,  3) (  3,  1, 10)
     0.1458E-03    0.1322E-03    0.9553E-04    0.7213E-04    0.5196E-04
  (  3,  1, 10) (  3,  1,  1) (  3,  1,  3) (  3,  1, 10) (  3,  1,  3)
     0.3624E-04    0.3287E-04    0.2410E-04    0.1713E-04   -0.1366E-04
  (  3,  1, 10) (  3,  1, 10) (  3,  1, 10) (  3,  1,  3) (  3,  3,  6)
    -0.1242E-04   -0.7422E-05
  (  3,  3,  6) (  3,  3,  6)


 OUTPUT CONTROL FOR STRESS PERIOD    4   TIME STEP   1
    SAVE HEAD FOR ALL LAYERS

 HEAD WILL BE SAVED ON UNIT   21 AT END OF TIME STEP   1, STRESS PERIOD    4
 
 SOLVING FOR HEAD 
    38 ITERATIONS FOR TIME STEP   2 IN STRESS PERIOD    4

 MAXIMUM HEAD CHANGE FOR EACH ITERATION:

    HEAD CHANGE   HEAD CHANGE   HEAD CHANGE   HEAD CHANGE   HEAD CHANGE
  LAYER,ROW,COL LAYER,ROW,COL LAYER,ROW,COL LAYER,ROW,COL LAYER,ROW,COL
 ----------------------------------------------------------------------
      1.523         2.100         1.011        -2.141        -1.862    
  (  3,  3,  6) (  3,  2,  8) (  3,  2,  1) (  3,  2, 10) (  3,  1,  8)
     0.5216        0.1213        0.1489        0.4639E-01   -0.2830E-01
  (  3,  1,  1) (  3,  6,  2) (  3, 10,  2) (  3, 10,  7) (  3,  3,  6)
    -0.1988E-01   -0.1811E-01   -0.1289E-01   -0.8323E-02   -0.4380E-02
  (  3,  3,  6) (  3,  3,  6) (  3,  3,  6) (  3,  3,  6) (  3,  3,  6)
    -0.2515E-02   -0.2174E-02   -0.1639E-02   -0.1258E-02   -0.9433E-03
  (  3,  3,  6) (  3,  3,  6) (  3,  3,  6) (  3,  3,  6) (  3,  3,  6)
    -0.7056E-03   -0.5915E-03   -0.4629E-03   -0.3411E-03   -0.2668E-03
  (  3,  3,  6) (  3,  3,  6) (  3,  3,  6) (  3,  3,  6) (  3,  3,  6)
    -0.1942E-03   -0.1668E-03   -0.1265E-03   -0.9680E-04   -0.7438E-04
  (  3,  3,  6) (  3,  3,  6) (  3,  3,  6) (  3,  3,  6) (  3,  3,  6)
    -0.5607E-04   -0.4681E-04   -0.3702E-04   -0.2757E-04   -0.2187E-04
  (  3,  3,  6) (  3,  3,  6) (  3,  3,  6) (  3,  3,  6) (  3,  3,  6)
    -0.1586E-04   -0.1108E-04   -0.7143E-05
  (  3,  3,  6) (  3,  3,  6) (  3,  3,  6)


 OUTPUT CONTROL FOR STRESS PERIOD    4   TIME STEP   2
    SAVE HEAD FOR ALL LAYERS

 HEAD WILL BE SAVED ON UNIT   21 AT END OF TIME STEP   2, STRESS PERIOD    4
 
 SOLVING FOR HEAD 
    38 ITERATIONS FOR TIME STEP   3 IN STRESS PERIOD    4

 MAXIMUM HEAD CHANGE FOR EACH ITERATION:

    HEAD CHANGE   HEAD CHANGE   HEAD CHANGE   HEAD CHANGE   HEAD CHANGE
  LAYER,ROW,COL LAYER,ROW,COL LAYER,ROW,COL LAYER,ROW,COL LAYER,ROW,COL
 ----------------------------------------------------------------------
      1.288         1.532        0.5734        -1.950        -1.494    
  (  3,  3,  6) (  3,  2, 10) (  3,  1,  1) (  3,  1, 10) (  3,  1,  5)
     0.7519        0.2168        0.4206E-01   -0.4031E-01   -0.2781E-01
  (  3,  1,  1) (  3,  2,  2) (  2,  1,  8) (  3,  3,  6) (  3,  3,  6)
     0.1797E-01   -0.1784E-01   -0.1119E-01   -0.6944E-02   -0.5302E-02
  (  2,  7,  1) (  3,  3,  6) (  3,  3,  6) (  3,  3,  6) (  3,  3,  6)
    -0.3245E-02   -0.3457E-02   -0.2510E-02   -0.1799E-02   -0.1302E-02
  (  3,  3,  6) (  3,  3,  6) (  3,  3,  6) (  3,  3,  6) (  3,  3,  6)
    -0.8619E-03   -0.8574E-03   -0.6513E-03   -0.4462E-03   -0.3457E-03
  (  3,  3,  6) (  3,  3,  6) (  3,  3,  6) (  3,  3,  6) (  3,  3,  6)
    -0.2213E-03   -0.2205E-03   -0.1635E-03   -0.1199E-03   -0.8702E-04
  (  3,  3,  6) (  3,  3,  6) (  3,  3,  6) (  3,  3,  6) (  3,  3,  6)
    -0.6058E-04   -0.5613E-04   -0.4375E-04   -0.3083E-04   -0.2393E-04
  (  3,  3,  6) (  3,  3,  6) (  3,  3,  6) (  3,  3,  6) (  3,  3,  6)
    -0.1518E-04   -0.1153E-04   -0.9031E-05
  (  3,  3,  6) (  3,  3,  6) (  3,  3,  6)


 OUTPUT CONTROL FOR STRESS PERIOD    4   TIME STEP   3
    SAVE HEAD FOR ALL LAYERS

 HEAD WILL BE SAVED ON UNIT   21 AT END OF TIME STEP   3, STRESS PERIOD    4
 
 SOLVING FOR HEAD 
    38 ITERATIONS FOR TIME STEP   4 IN STRESS PERIOD    4

 MAXIMUM HEAD CHANGE FOR EACH ITERATION:

    HEAD CHANGE   HEAD CHANGE   HEAD CHANGE   HEAD CHANGE   HEAD CHANGE
  LAYER,ROW,COL LAYER,ROW,COL LAYER,ROW,COL LAYER,ROW,COL LAYER,ROW,COL
 ----------------------------------------------------------------------
     0.8208         1.164        0.2677        -1.969        0.5670    
  (  3,  3,  7) (  3,  1, 10) (  3,  2,  1) (  3,  1, 10) (  3,  7,  1)
    -0.5711E-01   -0.6671E-01   -0.5373E-01   -0.3444E-01   -0.2367E-01
  (  3,  3,  7) (  3,  3,  6) (  3,  3,  6) (  3,  3,  6) (  3,  3,  7)
    -0.1174E-01   -0.1295E-01   -0.9818E-02   -0.6371E-02   -0.4703E-02
  (  3,  3,  6) (  3,  3,  6) (  3,  3,  6) (  3,  3,  6) (  3,  3,  6)
    -0.2731E-02   -0.3087E-02   -0.2321E-02   -0.1576E-02   -0.1135E-02
  (  3,  3,  6) (  3,  3,  6) (  3,  3,  6) (  3,  3,  6) (  3,  3,  6)
    -0.7097E-03   -0.7462E-03   -0.5771E-03   -0.3862E-03   -0.2929E-03
  (  3,  3,  6) (  3,  3,  6) (  3,  3,  6) (  3,  3,  6) (  3,  3,  6)
    -0.1819E-03   -0.1880E-03   -0.1432E-03   -0.1018E-03   -0.7362E-04
  (  3,  3,  6) (  3,  3,  6) (  3,  3,  6) (  3,  3,  6) (  3,  3,  6)
    -0.4910E-04   -0.4754E-04   -0.3822E-04   -0.2677E-04   -0.2009E-04
  (  3,  3,  6) (  3,  3,  6) (  3,  3,  6) (  3,  3,  6) (  3,  3,  6)
    -0.1249E-04   -0.1043E-04   -0.6096E-05
  (  3,  3,  6) (  3,  3,  6) (  3,  3,  6)


 OUTPUT CONTROL FOR STRESS PERIOD    4   TIME STEP   4
    SAVE HEAD FOR ALL LAYERS

 HEAD WILL BE SAVED ON UNIT   21 AT END OF TIME STEP   4, STRESS PERIOD    4
 
 SOLVING FOR HEAD 
    37 ITERATIONS FOR TIME STEP   5 IN STRESS PERIOD    4

 MAXIMUM HEAD CHANGE FOR EACH ITERATION:

    HEAD CHANGE   HEAD CHANGE   HEAD CHANGE   HEAD CHANGE   HEAD CHANGE
  LAYER,ROW,COL LAYER,ROW,COL LAYER,ROW,COL LAYER,ROW,COL LAYER,ROW,COL
 ----------------------------------------------------------------------
     0.6603        0.6984       -0.2694        -1.753        0.9939    
  (  3,  3,  6) (  3,  1, 10) (  3,  1, 10) (  3,  1, 10) (  3,  1,  1)
     0.1232       -0.7236E-01   -0.5790E-01   -0.3426E-01   -0.2322E-01
  (  2,  7, 10) (  3,  3,  7) (  3,  3,  7) (  3,  3,  6) (  3,  3,  7)
    -0.1130E-01   -0.1570E-01   -0.1235E-01   -0.7284E-02   -0.5149E-02
  (  3,  3,  6) (  3,  3,  6) (  3,  3,  6) (  3,  3,  6) (  3,  3,  6)
    -0.2572E-02   -0.3402E-02   -0.2652E-02   -0.1656E-02   -0.1141E-02
  (  3,  3,  6) (  3,  3,  6) (  3,  3,  6) (  3,  3,  6) (  3,  3,  6)
    -0.6323E-03   -0.7592E-03   -0.6080E-03   -0.3767E-03   -0.2763E-03
  (  3,  3,  6) (  3,  3,  6) (  3,  3,  6) (  3,  3,  6) (  3,  3,  6)
    -0.1546E-03   -0.1770E-03   -0.1400E-03   -0.9449E-04   -0.6557E-04
  (  3,  3,  6) (  3,  3,  6) (  3,  3,  6) (  3,  3,  6) (  3,  3,  6)
    -0.4158E-04   -0.4201E-04   -0.3581E-04   -0.2336E-04   -0.1725E-04
  (  3,  3,  6) (  3,  3,  6) (  3,  3,  6) (  3,  3,  6) (  3,  3,  6)
    -0.1027E-04   -0.6467E-05
  (  3,  3,  6) (  3,  3,  6)


 OUTPUT CONTROL FOR STRESS PERIOD    4   TIME STEP   5
    SAVE HEAD FOR ALL LAYERS

 HEAD WILL BE SAVED ON UNIT   21 AT END OF TIME STEP   5, STRESS PERIOD    4
 
 SOLVING FOR HEAD 
    36 ITERATIONS FOR TIME STEP   6 IN STRESS PERIOD    4

 MAXIMUM HEAD CHANGE FOR EACH ITERATION:

    HEAD CHANGE   HEAD CHANGE   HEAD CHANGE   HEAD CHANGE   HEAD CHANGE
  LAYER,ROW,COL LAYER,ROW,COL LAYER,ROW,COL LAYER,ROW,COL LAYER,ROW,COL
 ----------------------------------------------------------------------
     0.3566        0.1824       -0.5152        0.2349       -0.6930E-01
  (  3,  3,  6) (  3,  2,  8) (  3,  3,  6) (  3,  1,  1) (  3,  3,  7)
    -0.3494E-01   -0.5786E-01   -0.4856E-01   -0.2653E-01   -0.1735E-01
  (  3,  3,  7) (  3,  3,  7) (  3,  3,  7) (  3,  3,  6) (  3,  3,  7)
    -0.9407E-02   -0.1149E-01   -0.9580E-02   -0.5395E-02   -0.3683E-02
  (  2,  8,  1) (  3,  3,  7) (  3,  3,  6) (  3,  3,  7) (  3,  3,  6)
    -0.1724E-02   -0.2378E-02   -0.1972E-02   -0.1199E-02   -0.7925E-03
  (  3,  3,  6) (  3,  3,  6) (  3,  3,  7) (  3,  3,  6) (  3,  3,  6)
    -0.4303E-03   -0.5230E-03   -0.4464E-03   -0.2676E-03   -0.1972E-03
  (  3,  3,  6) (  3,  3,  6) (  3,  3,  6) (  3,  3,  6) (  3,  3,  6)
    -0.1054E-03   -0.1226E-03   -0.1033E-03   -0.7008E-04   -0.4591E-04
  (  3,  3,  6) (  3,  3,  6) (  3,  3,  6) (  3,  3,  6) (  3,  3,  6)
    -0.2858E-04   -0.2939E-04   -0.2755E-04   -0.1872E-04   -0.1292E-04
  (  3,  3,  6) (  3,  3,  6) (  3,  3,  6) (  3,  3,  6) (  3,  3,  6)
    -0.6033E-05
  (  3,  3,  6)


 OUTPUT CONTROL FOR STRESS PERIOD    4   TIME STEP   6
    PRINT BUDGET
    PRINT HEAD FOR ALL LAYERS
    SAVE HEAD FOR ALL LAYERS
    SAVE DRAWDOWN FOR ALL LAYERS
1
              HEAD IN LAYER   1 AT END OF TIME STEP   6 IN STRESS PERIOD    4
  ---------------------------------------------------------------------------

           1       2       3       4       5       6       7       8       9      10
 ...................................................................................
   1    22.34   22.00   21.34   20.92   20.72   20.72   20.92   21.34   21.99   22.34
   2    21.31   20.81   20.39   20.10   19.94   19.94   20.09   20.38   20.80   21.30
   3    19.80   19.31   18.95   18.70   18.58   18.58   18.70   18.94   19.30   19.79
   4    17.74   17.31   17.01   16.83   16.73   16.73   16.82   17.01   17.30   17.73
   5    14.82   14.73   14.63   14.55   14.50   14.50   14.54   14.62   14.73   14.81
   6    12.19   12.16   12.12   12.08   12.06   12.06   12.08   12.12   12.16   12.18
   7     9.61    9.59    9.55    9.51    9.49    9.49    9.51    9.55    9.58    9.61
   8     7.07    7.01    6.91    6.81    6.75    6.75    6.81    6.91    7.01    7.07
   9     4.70    4.53    4.22    3.87    3.72    3.72    3.87    4.22    4.53    4.70
  10     2.99    2.55    1.62    0.00    0.00    0.00    0.00    1.62    2.55    2.99
1
              HEAD IN LAYER   2 AT END OF TIME STEP   6 IN STRESS PERIOD    4
  ---------------------------------------------------------------------------

           1       2       3       4       5       6       7       8       9      10
 ...................................................................................
   1     3.30    3.34    3.36    3.37    3.36    3.35    3.33    3.30    3.26    3.20
   2     3.08    4.89    4.76    4.33    3.88    3.55    3.60    3.94    4.15    2.93
   3     2.79    4.14    3.81    3.06    1.96    0.45    0.86    2.18    2.99    2.60
   4     2.44    3.44    3.18    2.63    1.93    1.13    1.29    2.01    2.52    2.25
   5     2.05    2.69    2.59    2.36    2.10    1.91    1.91    2.05    2.16    1.87
   6     1.64    1.90    1.86    1.76    1.67    1.60    1.58    1.61    1.63    1.49
   7     1.22    1.00    0.92    0.87    0.83    0.80    0.79    0.81    0.86    1.10
   8     0.81    0.00   -0.18   -0.25   -0.29   -0.30   -0.28   -0.23   -0.07    0.72
   9     0.42   -0.99   -1.33   -1.51   -1.59   -1.60   -1.53   -1.36   -1.03    0.36
  10     0.08    0.00   -0.06   -0.10   -0.13   -0.13   -0.11   -0.08   -0.02    0.04
1
              HEAD IN LAYER   3 AT END OF TIME STEP   6 IN STRESS PERIOD    4
  ---------------------------------------------------------------------------

           1       2       3       4       5       6       7       8       9      10
 ...................................................................................
   1    -9.90  -10.04  -10.30  -10.64  -11.00  -11.27  -11.38  -11.34  -11.24  -11.17
   2   -10.14  -10.36  -10.80  -11.45  -12.22  -12.91  -12.94  -12.51  -12.09  -11.85
   3   -10.30  -10.64  -11.40  -12.69  -14.80  -18.31  -17.40  -14.70  -13.24  -12.59
   4    -9.88  -10.16  -10.74  -11.66  -12.99  -14.78  -14.46  -13.10  -12.23  -11.80
   5    -9.08   -9.22   -9.51   -9.92  -10.39  -10.78  -10.82  -10.62  -10.39  -10.25
   6    -8.28   -8.35   -8.47   -8.63   -8.80   -8.94   -8.99   -8.98   -8.94   -8.91
   7    -7.68   -7.71   -7.76   -7.82   -7.89   -7.94   -7.98   -7.99   -7.99   -7.99
   8    -7.29   -7.30   -7.32   -7.35   -7.38   -7.40   -7.42   -7.43   -7.44   -7.44
   9    -7.08   -7.09   -7.10   -7.11   -7.12   -7.13   -7.14   -7.15   -7.15   -7.15
  10    -7.00   -7.00   -7.01   -7.01   -7.02   -7.02   -7.03   -7.03   -7.03   -7.03

 HEAD WILL BE SAVED ON UNIT   21 AT END OF TIME STEP   6, STRESS PERIOD    4

 DRAWDOWN WILL BE SAVED ON UNIT   22 AT END OF TIME STEP   6, STRESS PERIOD    4
1
  VOLUMETRIC BUDGET FOR ENTIRE MODEL AT END OF TIME STEP  6 IN STRESS PERIOD   4
  ------------------------------------------------------------------------------

     CUMULATIVE VOLUMES      L**3       RATES FOR THIS TIME STEP      L**3/T
     ------------------                 ------------------------

           IN:                                      IN:
           ---                                      ---
             STORAGE =     6506351.5000               STORAGE =        5275.1587
       CONSTANT HEAD =         365.6649         CONSTANT HEAD =           2.8513
               WELLS =    32907002.0000                 WELLS =       30000.0000
    INST. IB STORAGE =    11716842.0000      INST. IB STORAGE =        7931.8623
    DELAY IB STORAGE =    13692295.0000      DELAY IB STORAGE =       15280.6094

            TOTAL IN =    64822856.0000              TOTAL IN =       58490.4805

          OUT:                                     OUT:
          ----                                     ----
             STORAGE =           0.0000               STORAGE =           0.0000
       CONSTANT HEAD =    31945890.0000         CONSTANT HEAD =       28490.5508
               WELLS =    32877002.0000                 WELLS =       30000.0000
    INST. IB STORAGE =           0.0000      INST. IB STORAGE =           0.0000
    DELAY IB STORAGE =           0.0000      DELAY IB STORAGE =           0.0000

           TOTAL OUT =    64822892.0000             TOTAL OUT =       58490.5508

            IN - OUT =         -36.0000              IN - OUT =      -7.0313E-02

 PERCENT DISCREPANCY =           0.00     PERCENT DISCREPANCY =           0.00






          TIME SUMMARY AT END OF TIME STEP   6 IN STRESS PERIOD    4
                    SECONDS     MINUTES      HOURS       DAYS        YEARS
                    -----------------------------------------------------------
   TIME STEP LENGTH 9.18681E+06 1.53113E+05  2551.9      106.33     0.29111    
 STRESS PERIOD TIME 3.15619E+07 5.26032E+05  8767.2      365.30      1.0001    
         TOTAL TIME 9.47722E+07 1.57954E+06  26326.      1096.9      3.0031    
1

                               VOLUMETRIC BUDGET FOR SYSTEMS OF DELAY INTERBEDS
                                          AT END OF TIME STEP  6 IN STRESS PERIOD  4

          |   C U M U L A T I V E   V O L U M E S   L**3           | R A T E S   F O R  T H I S  T I M E  S T E P   L**3/T  |
   SYSTEM |    CHANGE IN     BOUNDARY                    PERCENT   |    CHANGE IN     BOUNDARY                    PERCENT   |
   NUMBER |     STORAGE        FLOW           SUM      DISCREPANCY |     STORAGE        FLOW           SUM      DISCREPANCY |
  --------|--------------------------------------------------------|--------------------------------------------------------|
      1     13400.        -13400.        0.19531E-02    0.14575E-04     13.263        -13.263       -0.66757E-05   -0.50334E-04
      2    0.13679E+08   -0.13679E+08    -1.0000       -0.73105E-05     15267.        -15267.       -0.29297E-02   -0.19189E-04
  --------|--------------------------------------------------------|--------------------------------------------------------|
 TOTALS:    0.13692E+08   -0.13692E+08    -1.0000       -0.73034E-05     15281.        -15281.       -0.29297E-02   -0.19173E-04
1
                            STRESS PERIOD NO.    5, LENGTH =   365.3000    
                            -----------------------------------------------

                              NUMBER OF TIME STEPS =     6

                               MULTIPLIER FOR DELT =     1.300

                            INITIAL TIME STEP SIZE =   28.63744    

 REUSING NON-PARAMETER WELLS FROM LAST STRESS PERIOD

     14 WELLS
 
 SOLVING FOR HEAD 

    41 ITERATIONS FOR TIME STEP   1 IN STRESS PERIOD    5

 MAXIMUM HEAD CHANGE FOR EACH ITERATION:

    HEAD CHANGE   HEAD CHANGE   HEAD CHANGE   HEAD CHANGE   HEAD CHANGE
  LAYER,ROW,COL LAYER,ROW,COL LAYER,ROW,COL LAYER,ROW,COL LAYER,ROW,COL
 ----------------------------------------------------------------------
      2.209         4.626         2.098        -2.406        -2.649    
  (  3,  3,  7) (  3,  1, 10) (  3,  2,  1) (  3,  1, 10) (  3,  1,  1)
    -0.2752       -0.6656        -1.520        0.6300        0.4230E-01
  (  3,  1, 10) (  3,  3, 10) (  3,  1, 10) (  3,  1, 10) (  2, 10, 10)
    -0.4484E-01   -0.1716E-01   -0.1657E-01   -0.8543E-02   -0.6386E-02
  (  2,  7,  1) (  3,  3,  6) (  3, 10, 10) (  3,  3,  6) (  3,  3,  7)
    -0.3361E-02   -0.3219E-02    0.2338E-02    0.1997E-02    0.4155E-02
  (  3,  3,  6) (  3,  3,  6) (  3,  2, 10) (  3,  1,  1) (  3,  1, 10)
     0.2347E-02    0.2285E-02    0.1608E-02    0.1145E-02    0.8742E-03
  (  3,  1,  8) (  3,  1,  8) (  3,  1,  8) (  3,  1,  8) (  3,  1,  8)
     0.5723E-03    0.5510E-03    0.3896E-03    0.2841E-03    0.2072E-03
  (  3,  1, 10) (  3,  2,  9) (  3,  1,  8) (  3,  1,  8) (  3,  1,  8)
     0.1402E-03    0.1347E-03    0.9550E-04    0.6758E-04    0.5217E-04
  (  3,  1,  8) (  3,  1,  8) (  3,  1,  8) (  3,  1,  7) (  3,  1,  8)
     0.3381E-04    0.3273E-04    0.2287E-04    0.1693E-04    0.1229E-04
  (  3,  1,  8) (  3,  2,  9) (  3,  1,  8) (  3,  1,  8) (  3,  1,  7)
     0.8624E-05
  (  3,  1,  8)


 OUTPUT CONTROL FOR STRESS PERIOD    5   TIME STEP   1
    SAVE HEAD FOR ALL LAYERS

 HEAD WILL BE SAVED ON UNIT   21 AT END OF TIME STEP   1, STRESS PERIOD    5
 
 SOLVING FOR HEAD 
    38 ITERATIONS FOR TIME STEP   2 IN STRESS PERIOD    5

 MAXIMUM HEAD CHANGE FOR EACH ITERATION:

    HEAD CHANGE   HEAD CHANGE   HEAD CHANGE   HEAD CHANGE   HEAD CHANGE
  LAYER,ROW,COL LAYER,ROW,COL LAYER,ROW,COL LAYER,ROW,COL LAYER,ROW,COL
 ----------------------------------------------------------------------
      1.362         3.149         1.877        -1.905        -2.798    
  (  3,  3,  7) (  3,  1,  9) (  3,  2,  1) (  3,  1, 10) (  3,  1,  1)
    -0.2100       -0.5086        -1.160        0.8319        0.7864E-01
  (  3,  1, 10) (  3,  3, 10) (  3,  1, 10) (  3,  1, 10) (  2,  7, 10)
    -0.3428E-01   -0.1976E-01   -0.1276E-01   -0.8174E-02   -0.6000E-02
  (  2, 10, 10) (  2,  1,  2) (  3,  3,  6) (  3,  3,  6) (  3,  3,  6)
    -0.1616E-02    0.2697E-02    0.3247E-02    0.2599E-02    0.1754E-02
  (  3,  3,  6) (  3,  1,  1) (  3,  1,  2) (  3,  2,  9) (  3,  1,  2)
     0.1142E-02    0.1196E-02    0.8622E-03    0.5496E-03    0.4448E-03
  (  3,  1,  1) (  3,  2,  9) (  3,  2,  9) (  3,  1,  2) (  3,  2,  9)
     0.2631E-03    0.2886E-03    0.1884E-03    0.1429E-03    0.9471E-04
  (  3,  1, 10) (  3,  2,  9) (  3,  2,  9) (  3,  2,  9) (  3,  1,  2)
     0.6366E-04    0.6587E-04    0.4852E-04    0.3105E-04    0.2516E-04
  (  3,  2,  9) (  3,  2,  9) (  3,  2,  9) (  3,  2,  5) (  3,  2,  9)
     0.1425E-04    0.1583E-04    0.9765E-05
  (  3,  1,  2) (  3,  2,  9) (  3,  2,  9)


 OUTPUT CONTROL FOR STRESS PERIOD    5   TIME STEP   2
    SAVE HEAD FOR ALL LAYERS

 HEAD WILL BE SAVED ON UNIT   21 AT END OF TIME STEP   2, STRESS PERIOD    5
 
 SOLVING FOR HEAD 
    38 ITERATIONS FOR TIME STEP   3 IN STRESS PERIOD    5

 MAXIMUM HEAD CHANGE FOR EACH ITERATION:

    HEAD CHANGE   HEAD CHANGE   HEAD CHANGE   HEAD CHANGE   HEAD CHANGE
  LAYER,ROW,COL LAYER,ROW,COL LAYER,ROW,COL LAYER,ROW,COL LAYER,ROW,COL
 ----------------------------------------------------------------------
      1.179         2.633         1.461        -1.886        -2.764    
  (  3,  3,  8) (  3,  1, 10) (  3,  1,  1) (  3,  2, 10) (  3,  1,  6)
     0.4089        0.1461       -0.5415E-01   -0.2993E-01   -0.2689E-01
  (  3, 10, 10) (  3,  9,  6) (  3,  3,  6) (  3,  3,  7) (  3,  3,  7)
    -0.1568E-01   -0.1659E-01   -0.1203E-01   -0.4580E-02   -0.4025E-02
  (  3,  3,  6) (  3,  3,  6) (  3,  3,  6) (  3,  3,  6) (  3,  3,  6)
     0.3270E-02    0.3124E-02    0.2162E-02    0.1554E-02    0.1070E-02
  (  3,  1, 10) (  3,  1,  9) (  3,  1, 10) (  3,  1, 10) (  3,  1,  2)
     0.7007E-03    0.7199E-03    0.5036E-03    0.3290E-03    0.2650E-03
  (  3,  1,  9) (  3,  1, 10) (  3,  1,  9) (  3,  1,  5) (  3,  1, 10)
     0.1576E-03    0.1582E-03    0.1098E-03    0.8261E-04    0.5778E-04
  (  3,  1, 10) (  3,  1,  9) (  3,  1, 10) (  3,  1,  9) (  3,  1,  7)
    -0.4283E-04    0.3504E-04    0.2597E-04   -0.2157E-04   -0.1806E-04
  (  3,  3,  6) (  3,  1, 10) (  3,  1,  8) (  3,  3,  6) (  3,  3,  6)
    -0.1401E-04   -0.1111E-04   -0.6893E-05
  (  3,  3,  6) (  3,  3,  6) (  3,  3,  6)


 OUTPUT CONTROL FOR STRESS PERIOD    5   TIME STEP   3
    SAVE HEAD FOR ALL LAYERS

 HEAD WILL BE SAVED ON UNIT   21 AT END OF TIME STEP   3, STRESS PERIOD    5
 
 SOLVING FOR HEAD 
    36 ITERATIONS FOR TIME STEP   4 IN STRESS PERIOD    5

 MAXIMUM HEAD CHANGE FOR EACH ITERATION:

    HEAD CHANGE   HEAD CHANGE   HEAD CHANGE   HEAD CHANGE   HEAD CHANGE
  LAYER,ROW,COL LAYER,ROW,COL LAYER,ROW,COL LAYER,ROW,COL LAYER,ROW,COL
 ----------------------------------------------------------------------
     0.9483         1.910         1.167        -1.818        -2.579    
  (  3,  3, 10) (  3,  1, 10) (  3,  2,  1) (  3,  1, 10) (  3,  1,  1)
     0.8541        0.3918        0.1250       -0.5764E-01   -0.1413    
  (  3,  1,  2) (  3,  9,  6) (  3, 10,  1) (  3, 10, 10) (  3, 10,  1)
     0.8387E-01   -0.1826E-01   -0.1087E-01   -0.6151E-02   -0.4425E-02
  (  2,  9,  1) (  3,  3,  6) (  3,  3,  6) (  3,  3,  6) (  3,  3,  6)
    -0.2463E-02   -0.2932E-02   -0.2217E-02   -0.1449E-02   -0.1042E-02
  (  3,  3,  6) (  3,  3,  6) (  3,  3,  6) (  3,  3,  6) (  3,  3,  6)
    -0.6180E-03   -0.6866E-03   -0.5264E-03   -0.3481E-03   -0.2582E-03
  (  3,  3,  6) (  3,  3,  6) (  3,  3,  6) (  3,  3,  6) (  3,  3,  6)
    -0.1567E-03   -0.1661E-03   -0.1278E-03   -0.8830E-04   -0.6493E-04
  (  3,  3,  6) (  3,  3,  6) (  3,  3,  6) (  3,  3,  6) (  3,  3,  6)
    -0.4094E-04   -0.3856E-04   -0.3218E-04   -0.2264E-04   -0.1594E-04
  (  3,  3,  6) (  3,  3,  6) (  3,  3,  6) (  3,  3,  6) (  3,  3,  6)
    -0.9788E-05
  (  3,  3,  6)


 OUTPUT CONTROL FOR STRESS PERIOD    5   TIME STEP   4
    SAVE HEAD FOR ALL LAYERS

 HEAD WILL BE SAVED ON UNIT   21 AT END OF TIME STEP   4, STRESS PERIOD    5
 
 SOLVING FOR HEAD 
    36 ITERATIONS FOR TIME STEP   5 IN STRESS PERIOD    5

 MAXIMUM HEAD CHANGE FOR EACH ITERATION:

    HEAD CHANGE   HEAD CHANGE   HEAD CHANGE   HEAD CHANGE   HEAD CHANGE
  LAYER,ROW,COL LAYER,ROW,COL LAYER,ROW,COL LAYER,ROW,COL LAYER,ROW,COL
 ----------------------------------------------------------------------
     0.6994         1.060        0.4851        -1.762       -0.9114    
  (  3,  3,  7) (  3,  1,  9) (  3,  1,  1) (  3,  1, 10) (  3,  1,  5)
     0.4975        0.2058        0.4224E-01   -0.3332E-01   -0.2246E-01
  (  3,  1,  3) (  3,  2,  2) (  2,  1,  9) (  3,  3,  6) (  3,  3,  7)
     0.1491E-01   -0.1360E-01   -0.1071E-01   -0.6267E-02   -0.4439E-02
  (  2,  6,  1) (  3,  3,  6) (  3,  3,  6) (  3,  3,  6) (  3,  3,  6)
    -0.2192E-02   -0.2940E-02   -0.2277E-02   -0.1423E-02   -0.9732E-03
  (  3,  3,  6) (  3,  3,  6) (  3,  3,  6) (  3,  3,  6) (  3,  3,  6)
    -0.5373E-03   -0.6504E-03   -0.5208E-03   -0.3191E-03   -0.2365E-03
  (  3,  3,  6) (  3,  3,  6) (  3,  3,  6) (  3,  3,  6) (  3,  3,  6)
    -0.1300E-03   -0.1515E-03   -0.1188E-03   -0.8008E-04   -0.5531E-04
  (  3,  3,  6) (  3,  3,  6) (  3,  3,  6) (  3,  3,  6) (  3,  3,  6)
    -0.3487E-04   -0.3441E-04   -0.2938E-04   -0.2036E-04   -0.1403E-04
  (  3,  3,  6) (  3,  3,  6) (  3,  3,  6) (  3,  3,  6) (  3,  3,  6)
    -0.6668E-05
  (  3,  3,  6)


 OUTPUT CONTROL FOR STRESS PERIOD    5   TIME STEP   5
    SAVE HEAD FOR ALL LAYERS

 HEAD WILL BE SAVED ON UNIT   21 AT END OF TIME STEP   5, STRESS PERIOD    5
 
 SOLVING FOR HEAD 
    36 ITERATIONS FOR TIME STEP   6 IN STRESS PERIOD    5

 MAXIMUM HEAD CHANGE FOR EACH ITERATION:

    HEAD CHANGE   HEAD CHANGE   HEAD CHANGE   HEAD CHANGE   HEAD CHANGE
  LAYER,ROW,COL LAYER,ROW,COL LAYER,ROW,COL LAYER,ROW,COL LAYER,ROW,COL
 ----------------------------------------------------------------------
     0.3796        0.5879       -0.1263        -1.495        0.6841    
  (  3,  3,  6) (  3,  1, 10) (  3,  1, 10) (  3,  1, 10) (  3,  1,  2)
     0.8576E-01   -0.6446E-01   -0.5563E-01   -0.2970E-01   -0.1905E-01
  (  2,  8, 10) (  3,  3,  7) (  3,  3,  7) (  3,  3,  6) (  3,  3,  7)
    -0.7813E-02   -0.1262E-01   -0.1059E-01   -0.5762E-02   -0.3813E-02
  (  3,  3,  6) (  3,  3,  7) (  3,  3,  6) (  3,  3,  7) (  3,  3,  6)
    -0.1666E-02   -0.2477E-02   -0.2077E-02   -0.1201E-02   -0.7849E-03
  (  3,  3,  6) (  3,  3,  6) (  3,  3,  6) (  3,  3,  6) (  3,  3,  6)
    -0.3911E-03   -0.5168E-03   -0.4401E-03   -0.2560E-03   -0.1806E-03
  (  3,  3,  6) (  3,  3,  6) (  3,  3,  6) (  3,  3,  6) (  3,  3,  6)
    -0.9314E-04   -0.1141E-03   -0.9667E-04   -0.6161E-04   -0.4185E-04
  (  3,  3,  6) (  3,  3,  6) (  3,  3,  6) (  3,  3,  6) (  3,  3,  6)
    -0.2414E-04   -0.2584E-04   -0.2407E-04   -0.1542E-04   -0.1117E-04
  (  3,  3,  6) (  3,  3,  6) (  3,  3,  6) (  3,  3,  6) (  3,  3,  6)
    -0.3883E-05
  (  3,  3,  6)


 OUTPUT CONTROL FOR STRESS PERIOD    5   TIME STEP   6
    PRINT BUDGET
    PRINT HEAD FOR ALL LAYERS
    SAVE HEAD FOR ALL LAYERS
    SAVE DRAWDOWN FOR ALL LAYERS
1
              HEAD IN LAYER   1 AT END OF TIME STEP   6 IN STRESS PERIOD    5
  ---------------------------------------------------------------------------

           1       2       3       4       5       6       7       8       9      10
 ...................................................................................
   1    22.22   21.87   21.22   20.80   20.60   20.60   20.80   21.21   21.87   22.21
   2    21.18   20.69   20.27   19.97   19.82   19.82   19.97   20.26   20.68   21.18
   3    19.68   19.19   18.82   18.58   18.46   18.45   18.57   18.82   19.18   19.67
   4    17.62   17.19   16.90   16.71   16.61   16.61   16.70   16.89   17.18   17.61
   5    14.71   14.62   14.52   14.44   14.39   14.39   14.43   14.51   14.61   14.70
   6    12.09   12.06   12.02   11.98   11.96   11.96   11.98   12.02   12.05   12.08
   7     9.52    9.50    9.46    9.42    9.40    9.40    9.42    9.46    9.49    9.52
   8     7.00    6.94    6.84    6.74    6.69    6.69    6.74    6.84    6.94    7.00
   9     4.65    4.48    4.17    3.83    3.68    3.68    3.83    4.17    4.48    4.65
  10     2.95    2.52    1.60    0.00    0.00    0.00    0.00    1.60    2.52    2.95
1
              HEAD IN LAYER   2 AT END OF TIME STEP   6 IN STRESS PERIOD    5
  ---------------------------------------------------------------------------

           1       2       3       4       5       6       7       8       9      10
 ...................................................................................
   1     2.79    2.83    2.85    2.85    2.85    2.83    2.81    2.78    2.74    2.69
   2     2.59    4.30    4.14    3.69    3.24    2.89    2.94    3.28    3.50    2.43
   3     2.32    3.57    3.21    2.45    1.33   -0.20    0.21    1.54    2.36    2.12
   4     2.00    2.92    2.63    2.07    1.36    0.54    0.70    1.42    1.94    1.79
   5     1.64    2.23    2.12    1.88    1.62    1.41    1.41    1.54    1.67    1.45
   6     1.26    1.52    1.47    1.37    1.27    1.20    1.18    1.20    1.22    1.10
   7     0.87    0.70    0.63    0.57    0.52    0.49    0.48    0.50    0.54    0.74
   8     0.48   -0.23   -0.39   -0.47   -0.51   -0.53   -0.51   -0.46   -0.31    0.38
   9     0.12   -1.17   -1.49   -1.67   -1.74   -1.75   -1.69   -1.52   -1.21    0.05
  10    -0.21   -0.28   -0.34   -0.38   -0.40   -0.41   -0.39   -0.35   -0.31   -0.24
1
              HEAD IN LAYER   3 AT END OF TIME STEP   6 IN STRESS PERIOD    5
  ---------------------------------------------------------------------------

           1       2       3       4       5       6       7       8       9      10
 ...................................................................................
   1   -11.00  -11.15  -11.42  -11.78  -12.15  -12.45  -12.57  -12.53  -12.44  -12.38
   2   -11.22  -11.45  -11.91  -12.57  -13.37  -14.08  -14.12  -13.70  -13.28  -13.04
   3   -11.33  -11.69  -12.46  -13.77  -15.91  -19.44  -18.55  -15.85  -14.39  -13.74
   4   -10.82  -11.10  -11.70  -12.65  -14.00  -15.80  -15.50  -14.14  -13.27  -12.84
   5    -9.88  -10.03  -10.33  -10.75  -11.24  -11.64  -11.70  -11.50  -11.27  -11.14
   6    -8.93   -9.00   -9.13   -9.30   -9.48   -9.62   -9.69   -9.68   -9.64   -9.61
   7    -8.17   -8.20   -8.25   -8.33   -8.40   -8.46   -8.50   -8.52   -8.52   -8.52
   8    -7.64   -7.66   -7.68   -7.71   -7.75   -7.78   -7.80   -7.81   -7.82   -7.82
   9    -7.32   -7.33   -7.35   -7.36   -7.38   -7.39   -7.41   -7.41   -7.42   -7.42
  10    -7.17   -7.18   -7.19   -7.20   -7.21   -7.21   -7.22   -7.23   -7.23   -7.23

 HEAD WILL BE SAVED ON UNIT   21 AT END OF TIME STEP   6, STRESS PERIOD    5

 DRAWDOWN WILL BE SAVED ON UNIT   22 AT END OF TIME STEP   6, STRESS PERIOD    5
1
  VOLUMETRIC BUDGET FOR ENTIRE MODEL AT END OF TIME STEP  6 IN STRESS PERIOD   5
  ------------------------------------------------------------------------------

     CUMULATIVE VOLUMES      L**3       RATES FOR THIS TIME STEP      L**3/T
     ------------------                 ------------------------

           IN:                                      IN:
           ---                                      ---
             STORAGE =     8398157.0000               STORAGE =        5119.0669
       CONSTANT HEAD =        2855.1091         CONSTANT HEAD =           9.4470
               WELLS =    43866000.0000                 WELLS =       30000.0000
    INST. IB STORAGE =    14387909.0000      INST. IB STORAGE =        6974.4990
    DELAY IB STORAGE =    19461946.0000      DELAY IB STORAGE =       16060.8506

            TOTAL IN =    86116864.0000              TOTAL IN =       58163.8633

          OUT:                                     OUT:
          ----                                     ----
             STORAGE =           0.0000               STORAGE =           0.0000
       CONSTANT HEAD =    42280912.0000         CONSTANT HEAD =       28163.9102
               WELLS =    43836000.0000                 WELLS =       30000.0000
    INST. IB STORAGE =           0.0000      INST. IB STORAGE =           0.0000
    DELAY IB STORAGE =           0.0000      DELAY IB STORAGE =           0.0000

           TOTAL OUT =    86116912.0000             TOTAL OUT =       58163.9102

            IN - OUT =         -48.0000              IN - OUT =      -4.6875E-02

 PERCENT DISCREPANCY =           0.00     PERCENT DISCREPANCY =           0.00






          TIME SUMMARY AT END OF TIME STEP   6 IN STRESS PERIOD    5
                    SECONDS     MINUTES      HOURS       DAYS        YEARS
                    -----------------------------------------------------------
   TIME STEP LENGTH 9.18681E+06 1.53113E+05  2551.9      106.33     0.29111    
 STRESS PERIOD TIME 3.15619E+07 5.26032E+05  8767.2      365.30      1.0001    
         TOTAL TIME 1.26334E+08 2.10557E+06  35093.      1462.2      4.0033    
1

                               VOLUMETRIC BUDGET FOR SYSTEMS OF DELAY INTERBEDS
                                          AT END OF TIME STEP  6 IN STRESS PERIOD  5

          |   C U M U L A T I V E   V O L U M E S   L**3           | R A T E S   F O R  T H I S  T I M E  S T E P   L**3/T  |
   SYSTEM |    CHANGE IN     BOUNDARY                    PERCENT   |    CHANGE IN     BOUNDARY                    PERCENT   |
   NUMBER |     STORAGE        FLOW           SUM      DISCREPANCY |     STORAGE        FLOW           SUM      DISCREPANCY |
  --------|--------------------------------------------------------|--------------------------------------------------------|
      1     18476.        -18475.        0.19531E-02    0.10571E-04     13.063        -13.063       -0.38147E-05   -0.29203E-04
      2    0.19443E+08   -0.19443E+08    -2.0000       -0.10286E-04     16048.        -16048.        0.29297E-02    0.18256E-04
  --------|--------------------------------------------------------|--------------------------------------------------------|
 TOTALS:    0.19462E+08   -0.19462E+08    -2.0000       -0.10276E-04     16061.        -16061.        0.29297E-02    0.18241E-04
1
                            STRESS PERIOD NO.    6, LENGTH =   365.3000    
                            -----------------------------------------------

                              NUMBER OF TIME STEPS =     6

                               MULTIPLIER FOR DELT =     1.300

                            INITIAL TIME STEP SIZE =   28.63744    

 REUSING NON-PARAMETER WELLS FROM LAST STRESS PERIOD

     14 WELLS
 
 SOLVING FOR HEAD 

    44 ITERATIONS FOR TIME STEP   1 IN STRESS PERIOD    6

 MAXIMUM HEAD CHANGE FOR EACH ITERATION:

    HEAD CHANGE   HEAD CHANGE   HEAD CHANGE   HEAD CHANGE   HEAD CHANGE
  LAYER,ROW,COL LAYER,ROW,COL LAYER,ROW,COL LAYER,ROW,COL LAYER,ROW,COL
 ----------------------------------------------------------------------
      2.216         4.116         3.003        -2.258        -3.232    
  (  3,  3, 10) (  3,  1,  8) (  3,  1,  1) (  3,  2, 10) (  3,  1,  1)
    -0.3134       -0.7180        -1.695        0.3519        0.3326E-01
  (  3,  1, 10) (  3,  2, 10) (  3,  1, 10) (  3, 10,  1) (  2, 10,  1)
    -0.6113E-01   -0.1513E-01   -0.8950E-02   -0.7186E-02   -0.4024E-02
  (  2,  8,  1) (  3,  3,  6) (  3,  3,  7) (  3,  3,  6) (  3,  3,  7)
    -0.3888E-02   -0.2253E-02   -0.1792E-02    0.2337E-02    0.2772E-02
  (  3,  3,  6) (  3,  3,  7) (  3,  3,  6) (  3,  1,  1) (  3,  3, 10)
     0.1988E-02    0.3940E-02    0.2901E-02    0.2068E-02    0.1563E-02
  (  3,  1,  1) (  3,  1, 10) (  3,  2,  9) (  3,  2,  9) (  3,  2,  9)
     0.9984E-03    0.1026E-02    0.7132E-03    0.5148E-03    0.3794E-03
  (  3,  1, 10) (  3,  2,  9) (  3,  2,  9) (  3,  2,  9) (  3,  2,  9)
     0.2462E-03    0.2525E-03    0.1774E-03    0.1252E-03    0.9550E-04
  (  3,  2,  9) (  3,  2,  9) (  3,  2,  9) (  3,  2,  9) (  3,  2,  9)
     0.6080E-04    0.6212E-04    0.4349E-04    0.3158E-04    0.2315E-04
  (  3,  2,  9) (  3,  2,  9) (  3,  2,  9) (  3,  2,  9) (  3,  2,  9)
     0.1549E-04    0.1521E-04    0.1029E-04    0.3866E-05
  (  3,  2,  9) (  3,  2,  9) (  3,  2,  9) (  3,  2,  9)


 OUTPUT CONTROL FOR STRESS PERIOD    6   TIME STEP   1
    SAVE HEAD FOR ALL LAYERS

 HEAD WILL BE SAVED ON UNIT   21 AT END OF TIME STEP   1, STRESS PERIOD    6
 
 SOLVING FOR HEAD 
    41 ITERATIONS FOR TIME STEP   2 IN STRESS PERIOD    6

 MAXIMUM HEAD CHANGE FOR EACH ITERATION:

    HEAD CHANGE   HEAD CHANGE   HEAD CHANGE   HEAD CHANGE   HEAD CHANGE
  LAYER,ROW,COL LAYER,ROW,COL LAYER,ROW,COL LAYER,ROW,COL LAYER,ROW,COL
 ----------------------------------------------------------------------
      1.621         3.658         2.269        -1.923        -3.129    
  (  3,  1,  1) (  3,  1,  9) (  3,  2,  1) (  3,  1, 10) (  3,  1,  1)
    -0.2402       -0.5792        -1.474        0.5967        0.9416E-01
  (  3,  1, 10) (  3,  2, 10) (  3,  1, 10) (  3,  1, 10) (  2, 10, 10)
    -0.5127E-01   -0.1495E-01   -0.1046E-01   -0.6254E-02   -0.5047E-02
  (  2, 10, 10) (  3,  3,  6) (  3,  3,  6) (  3,  3,  6) (  3,  3,  7)
    -0.2219E-02   -0.2138E-02    0.2655E-02    0.2972E-02    0.4009E-02
  (  3,  3,  6) (  3,  3,  6) (  3,  4, 10) (  3,  1,  1) (  3,  1, 10)
     0.2502E-02    0.2647E-02    0.1728E-02    0.1262E-02    0.9211E-03
  (  3,  1, 10) (  3,  1, 10) (  3,  1, 10) (  3,  1, 10) (  3,  1, 10)
     0.6198E-03    0.5658E-03    0.4238E-03    0.2882E-03    0.2159E-03
  (  3,  1, 10) (  3,  2,  9) (  3,  1, 10) (  3,  1, 10) (  3,  1, 10)
     0.1346E-03    0.1421E-03    0.9319E-04    0.6788E-04    0.4979E-04
  (  3,  1, 10) (  3,  1, 10) (  3,  1, 10) (  3,  1, 10) (  3,  1, 10)
     0.3378E-04    0.3014E-04    0.2269E-04    0.1562E-04    0.1179E-04
  (  3,  1, 10) (  3,  1, 10) (  3,  1, 10) (  3,  1, 10) (  3,  1, 10)
     0.7064E-05
  (  3,  1, 10)


 OUTPUT CONTROL FOR STRESS PERIOD    6   TIME STEP   2
    SAVE HEAD FOR ALL LAYERS

 HEAD WILL BE SAVED ON UNIT   21 AT END OF TIME STEP   2, STRESS PERIOD    6
 
 SOLVING FOR HEAD 
    38 ITERATIONS FOR TIME STEP   3 IN STRESS PERIOD    6

 MAXIMUM HEAD CHANGE FOR EACH ITERATION:

    HEAD CHANGE   HEAD CHANGE   HEAD CHANGE   HEAD CHANGE   HEAD CHANGE
  LAYER,ROW,COL LAYER,ROW,COL LAYER,ROW,COL LAYER,ROW,COL LAYER,ROW,COL
 ----------------------------------------------------------------------
      1.223         3.141         2.091        -1.822        -3.129    
  (  3,  2, 10) (  3,  1, 10) (  3,  2,  5) (  3,  2,  9) (  3,  1,  5)
     0.1882       -0.3856       -0.7902        0.6250        0.5527E-01
  (  3, 10, 10) (  3,  3, 10) (  3,  1, 10) (  3,  1, 10) (  2,  6, 10)
    -0.3086E-01   -0.1701E-01   -0.9957E-02   -0.7120E-02   -0.3182E-02
  (  2, 10, 10) (  3,  3,  6) (  3,  3,  7) (  3,  3,  7) (  3,  3,  7)
    -0.1797E-02    0.3998E-02    0.3788E-02    0.2652E-02    0.1976E-02
  (  3,  3,  6) (  3,  1,  1) (  3,  1,  3) (  3,  1,  1) (  3,  1,  1)
     0.1180E-02    0.1295E-02    0.9094E-03    0.5931E-03    0.4281E-03
  (  3,  1,  1) (  3,  2,  2) (  3,  1,  1) (  3,  1,  1) (  3,  1,  8)
     0.2538E-03    0.2912E-03    0.1978E-03    0.1311E-03    0.9582E-04
  (  3,  1,  5) (  3,  1,  1) (  3,  1,  5) (  3,  1,  8) (  3,  1,  1)
     0.5732E-04    0.6338E-04    0.4421E-04    0.2953E-04    0.2229E-04
  (  3,  1,  1) (  3,  2,  4) (  3,  1,  1) (  3,  1,  5) (  3,  1,  8)
     0.1275E-04    0.1302E-04    0.8718E-05
  (  3,  1,  1) (  3,  1,  1) (  3,  1,  4)


 OUTPUT CONTROL FOR STRESS PERIOD    6   TIME STEP   3
    SAVE HEAD FOR ALL LAYERS

 HEAD WILL BE SAVED ON UNIT   21 AT END OF TIME STEP   3, STRESS PERIOD    6
 
 SOLVING FOR HEAD 
    35 ITERATIONS FOR TIME STEP   4 IN STRESS PERIOD    6

 MAXIMUM HEAD CHANGE FOR EACH ITERATION:

    HEAD CHANGE   HEAD CHANGE   HEAD CHANGE   HEAD CHANGE   HEAD CHANGE
  LAYER,ROW,COL LAYER,ROW,COL LAYER,ROW,COL LAYER,ROW,COL LAYER,ROW,COL
 ----------------------------------------------------------------------
     0.9250         2.056         1.429        -1.577        -2.909    
  (  3,  3, 10) (  3,  1,  9) (  3,  1,  1) (  3,  1, 10) (  3,  1,  1)
     0.6515        0.3094        0.5765E-01   -0.3306E-01   -0.2553E-01
  (  3, 10,  1) (  3,  9,  3) (  2,  1,  6) (  3,  3,  6) (  3,  3,  7)
     0.3236E-01   -0.1577E-01   -0.8267E-02   -0.5481E-02    0.2920E-02
  (  2,  6,  1) (  3,  3,  7) (  3,  3,  6) (  3,  3,  7) (  3,  1, 10)
    -0.1890E-02    0.1975E-02    0.1361E-02    0.8350E-03    0.6907E-03
  (  2,  6,  1) (  3,  1,  1) (  3,  1,  2) (  3,  1,  1) (  3,  1,  1)
     0.3794E-03    0.4162E-03    0.2917E-03    0.2062E-03    0.1326E-03
  (  3,  1,  1) (  3,  1,  2) (  3,  1,  1) (  3,  1,  1) (  3,  1, 10)
     0.8926E-04    0.9461E-04    0.6624E-04    0.4183E-04    0.3454E-04
  (  3,  1,  1) (  3,  1,  1) (  3,  1,  2) (  3,  1, 10) (  3,  1,  1)
    -0.2280E-04   -0.1833E-04   -0.1487E-04   -0.1113E-04   -0.6250E-05
  (  3,  3,  6) (  3,  3,  6) (  3,  3,  6) (  3,  3,  6) (  3,  3,  6)


 OUTPUT CONTROL FOR STRESS PERIOD    6   TIME STEP   4
    SAVE HEAD FOR ALL LAYERS

 HEAD WILL BE SAVED ON UNIT   21 AT END OF TIME STEP   4, STRESS PERIOD    6
 
 SOLVING FOR HEAD 
    36 ITERATIONS FOR TIME STEP   5 IN STRESS PERIOD    6

 MAXIMUM HEAD CHANGE FOR EACH ITERATION:

    HEAD CHANGE   HEAD CHANGE   HEAD CHANGE   HEAD CHANGE   HEAD CHANGE
  LAYER,ROW,COL LAYER,ROW,COL LAYER,ROW,COL LAYER,ROW,COL LAYER,ROW,COL
 ----------------------------------------------------------------------
     0.7311         1.213        0.9727        -1.575        -2.115    
  (  3,  1, 10) (  3,  2,  8) (  3,  1,  1) (  3,  1, 10) (  3,  1,  1)
     0.7328        0.3852        0.1023        0.3657E-01   -0.2864E-01
  (  3,  1, 10) (  3,  2,  2) (  2,  1,  9) (  2, 10,  1) (  2, 10, 10)
     0.3421E-01   -0.1467E-01   -0.1149E-01   -0.6439E-02   -0.4538E-02
  (  2,  7,  1) (  3,  3,  6) (  3,  3,  6) (  3,  3,  6) (  3,  3,  6)
    -0.2072E-02   -0.2996E-02   -0.2320E-02   -0.1419E-02   -0.9385E-03
  (  3,  3,  6) (  3,  3,  6) (  3,  3,  6) (  3,  3,  6) (  3,  3,  6)
    -0.4917E-03   -0.6371E-03   -0.5147E-03   -0.3009E-03   -0.2223E-03
  (  3,  3,  6) (  3,  3,  6) (  3,  3,  6) (  3,  3,  6) (  3,  3,  6)
    -0.1130E-03   -0.1423E-03   -0.1114E-03   -0.7328E-04   -0.4978E-04
  (  3,  3,  6) (  3,  3,  6) (  3,  3,  6) (  3,  3,  6) (  3,  3,  6)
    -0.2925E-04   -0.3090E-04   -0.2689E-04   -0.1723E-04   -0.1170E-04
  (  3,  3,  6) (  3,  3,  6) (  3,  3,  6) (  3,  3,  6) (  3,  3,  6)
    -0.5195E-05
  (  3,  3,  6)


 OUTPUT CONTROL FOR STRESS PERIOD    6   TIME STEP   5
    SAVE HEAD FOR ALL LAYERS

 HEAD WILL BE SAVED ON UNIT   21 AT END OF TIME STEP   5, STRESS PERIOD    6
 
 SOLVING FOR HEAD 
    34 ITERATIONS FOR TIME STEP   6 IN STRESS PERIOD    6

 MAXIMUM HEAD CHANGE FOR EACH ITERATION:

    HEAD CHANGE   HEAD CHANGE   HEAD CHANGE   HEAD CHANGE   HEAD CHANGE
  LAYER,ROW,COL LAYER,ROW,COL LAYER,ROW,COL LAYER,ROW,COL LAYER,ROW,COL
 ----------------------------------------------------------------------
     0.4416        0.7235        0.2563        -1.628        0.7449    
  (  3,  3, 10) (  3,  1,  9) (  3,  2,  1) (  3,  1, 10) (  3, 10,  1)
     0.6392E-01   -0.5861E-01   -0.5203E-01   -0.2455E-01   -0.1497E-01
  (  2,  2,  1) (  3,  3,  7) (  3,  3,  7) (  3,  3,  7) (  3,  3,  7)
    -0.1103E-01   -0.9772E-02   -0.8205E-02   -0.4522E-02   -0.2918E-02
  (  2,  7,  1) (  3,  3,  7) (  3,  3,  6) (  3,  3,  7) (  3,  3,  6)
    -0.1302E-02   -0.1912E-02   -0.1620E-02   -0.9228E-03   -0.6140E-03
  (  3,  3,  6) (  3,  3,  6) (  3,  3,  6) (  3,  3,  6) (  3,  3,  6)
    -0.3037E-03   -0.3973E-03   -0.3380E-03   -0.2010E-03   -0.1403E-03
  (  3,  3,  6) (  3,  3,  6) (  3,  3,  6) (  3,  3,  6) (  3,  3,  6)
    -0.7316E-04   -0.8717E-04   -0.7494E-04   -0.4871E-04   -0.3309E-04
  (  3,  3,  6) (  3,  3,  6) (  3,  3,  6) (  3,  3,  6) (  3,  3,  6)
    -0.1922E-04   -0.1855E-04   -0.1565E-04   -0.9945E-05
  (  3,  3,  6) (  3,  3,  6) (  3,  3,  6) (  3,  3,  6)


 OUTPUT CONTROL FOR STRESS PERIOD    6   TIME STEP   6
    PRINT BUDGET
    PRINT HEAD FOR ALL LAYERS
    SAVE HEAD FOR ALL LAYERS
    SAVE DRAWDOWN FOR ALL LAYERS
1
              HEAD IN LAYER   1 AT END OF TIME STEP   6 IN STRESS PERIOD    6
  ---------------------------------------------------------------------------

           1       2       3       4       5       6       7       8       9      10
 ...................................................................................
   1    22.10   21.75   21.09   20.67   20.47   20.47   20.67   21.09   21.74   22.09
   2    21.06   20.56   20.14   19.85   19.69   19.69   19.84   20.14   20.55   21.05
   3    19.56   19.07   18.70   18.46   18.33   18.33   18.45   18.69   19.06   19.55
   4    17.51   17.08   16.78   16.59   16.50   16.49   16.58   16.77   17.07   17.50
   5    14.60   14.51   14.41   14.33   14.28   14.28   14.32   14.40   14.50   14.59
   6    11.99   11.96   11.92   11.88   11.86   11.86   11.88   11.92   11.96   11.98
   7     9.44    9.41    9.38    9.34    9.32    9.31    9.34    9.37    9.41    9.43
   8     6.93    6.87    6.78    6.68    6.62    6.62    6.68    6.78    6.87    6.93
   9     4.60    4.43    4.13    3.79    3.65    3.64    3.79    4.13    4.43    4.60
  10     2.92    2.50    1.58    0.00    0.00    0.00    0.00    1.58    2.50    2.92
1
              HEAD IN LAYER   2 AT END OF TIME STEP   6 IN STRESS PERIOD    6
  ---------------------------------------------------------------------------

           1       2       3       4       5       6       7       8       9      10
 ...................................................................................
   1     2.34    2.37    2.39    2.39    2.39    2.37    2.35    2.32    2.28    2.24
   2     2.15    3.77    3.60    3.14    2.68    2.33    2.38    2.71    2.95    1.99
   3     1.90    3.06    2.69    1.92    0.79   -0.75   -0.34    0.98    1.82    1.70
   4     1.60    2.45    2.15    1.58    0.86    0.04    0.20    0.91    1.45    1.39
   5     1.26    1.82    1.70    1.45    1.19    0.98    0.97    1.10    1.23    1.06
   6     0.90    1.17    1.12    1.02    0.91    0.84    0.82    0.83    0.85    0.73
   7     0.54    0.41    0.35    0.29    0.24    0.21    0.19    0.20    0.24    0.40
   8     0.17   -0.46   -0.61   -0.69   -0.73   -0.75   -0.73   -0.69   -0.55    0.07
   9    -0.17   -1.36   -1.66   -1.84   -1.92   -1.93   -1.86   -1.70   -1.41   -0.25
  10    -0.48   -0.55   -0.61   -0.65   -0.67   -0.67   -0.66   -0.63   -0.58   -0.52
1
              HEAD IN LAYER   3 AT END OF TIME STEP   6 IN STRESS PERIOD    6
  ---------------------------------------------------------------------------

           1       2       3       4       5       6       7       8       9      10
 ...................................................................................
   1   -11.96  -12.11  -12.39  -12.76  -13.15  -13.46  -13.59  -13.56  -13.47  -13.41
   2   -12.17  -12.40  -12.87  -13.55  -14.36  -15.08  -15.13  -14.71  -14.29  -14.06
   3   -12.23  -12.59  -13.37  -14.71  -16.87  -20.41  -19.53  -16.82  -15.36  -14.71
   4   -11.63  -11.93  -12.53  -13.50  -14.86  -16.68  -16.39  -15.03  -14.16  -13.73
   5   -10.59  -10.75  -11.05  -11.48  -11.98  -12.39  -12.46  -12.26  -12.03  -11.90
   6    -9.51   -9.59   -9.72   -9.90  -10.09  -10.24  -10.31  -10.30  -10.27  -10.24
   7    -8.64   -8.67   -8.73   -8.81   -8.88   -8.95   -8.99   -9.01   -9.02   -9.02
   8    -8.01   -8.03   -8.06   -8.09   -8.13   -8.16   -8.18   -8.20   -8.21   -8.21
   9    -7.62   -7.63   -7.65   -7.66   -7.68   -7.70   -7.71   -7.72   -7.73   -7.73
  10    -7.43   -7.44   -7.45   -7.46   -7.47   -7.48   -7.49   -7.50   -7.50   -7.50

 HEAD WILL BE SAVED ON UNIT   21 AT END OF TIME STEP   6, STRESS PERIOD    6

 DRAWDOWN WILL BE SAVED ON UNIT   22 AT END OF TIME STEP   6, STRESS PERIOD    6
1
  VOLUMETRIC BUDGET FOR ENTIRE MODEL AT END OF TIME STEP  6 IN STRESS PERIOD   6
  ------------------------------------------------------------------------------

     CUMULATIVE VOLUMES      L**3       RATES FOR THIS TIME STEP      L**3/T
     ------------------                 ------------------------

           IN:                                      IN:
           ---                                      ---
             STORAGE =    10236912.0000               STORAGE =        4978.8320
       CONSTANT HEAD =        7727.3838         CONSTANT HEAD =          15.9226
               WELLS =    54825000.0000                 WELLS =       30000.0000
    INST. IB STORAGE =    16804066.0000      INST. IB STORAGE =        6417.3926
    DELAY IB STORAGE =    25424646.0000      DELAY IB STORAGE =       16454.0664

            TOTAL IN =   107298352.0000              TOTAL IN =       57866.2148

          OUT:                                     OUT:
          ----                                     ----
             STORAGE =           0.0000               STORAGE =           0.0000
       CONSTANT HEAD =    52503404.0000         CONSTANT HEAD =       27866.2754
               WELLS =    54795000.0000                 WELLS =       30000.0000
    INST. IB STORAGE =           0.0000      INST. IB STORAGE =           0.0000
    DELAY IB STORAGE =           0.0000      DELAY IB STORAGE =           0.0000

           TOTAL OUT =   107298400.0000             TOTAL OUT =       57866.2734

            IN - OUT =         -48.0000              IN - OUT =      -5.8594E-02

 PERCENT DISCREPANCY =           0.00     PERCENT DISCREPANCY =           0.00






          TIME SUMMARY AT END OF TIME STEP   6 IN STRESS PERIOD    6
                    SECONDS     MINUTES      HOURS       DAYS        YEARS
                    -----------------------------------------------------------
   TIME STEP LENGTH 9.18681E+06 1.53113E+05  2551.9      106.33     0.29111    
 STRESS PERIOD TIME 3.15619E+07 5.26032E+05  8767.2      365.30      1.0001    
         TOTAL TIME 1.57896E+08 2.63160E+06  43860.      1827.5      5.0034    
1

                               VOLUMETRIC BUDGET FOR SYSTEMS OF DELAY INTERBEDS
                                          AT END OF TIME STEP  6 IN STRESS PERIOD  6

          |   C U M U L A T I V E   V O L U M E S   L**3           | R A T E S   F O R  T H I S  T I M E  S T E P   L**3/T  |
   SYSTEM |    CHANGE IN     BOUNDARY                    PERCENT   |    CHANGE IN     BOUNDARY                    PERCENT   |
   NUMBER |     STORAGE        FLOW           SUM      DISCREPANCY |     STORAGE        FLOW           SUM      DISCREPANCY |
  --------|--------------------------------------------------------|--------------------------------------------------------|
      1     23379.        -23379.        0.19531E-02    0.83541E-05     12.652        -12.652       -0.95367E-06   -0.75380E-05
      2    0.25401E+08   -0.25401E+08    -2.0000       -0.78736E-05     16441.        -16441.        0.58594E-02    0.35638E-04
  --------|--------------------------------------------------------|--------------------------------------------------------|
 TOTALS:    0.25425E+08   -0.25425E+08    -2.0000       -0.78664E-05     16454.        -16454.        0.58594E-02    0.35610E-04
1
                            STRESS PERIOD NO.    7, LENGTH =   365.3000    
                            -----------------------------------------------

                              NUMBER OF TIME STEPS =     6

                               MULTIPLIER FOR DELT =     1.300

                            INITIAL TIME STEP SIZE =   28.63744    

 REUSING NON-PARAMETER WELLS FROM LAST STRESS PERIOD

     14 WELLS
 
 SOLVING FOR HEAD 

    44 ITERATIONS FOR TIME STEP   1 IN STRESS PERIOD    7

 MAXIMUM HEAD CHANGE FOR EACH ITERATION:

    HEAD CHANGE   HEAD CHANGE   HEAD CHANGE   HEAD CHANGE   HEAD CHANGE
  LAYER,ROW,COL LAYER,ROW,COL LAYER,ROW,COL LAYER,ROW,COL LAYER,ROW,COL
 ----------------------------------------------------------------------
      2.096         5.145         2.725        -2.266        -3.198    
  (  3,  3, 10) (  3,  1, 10) (  3,  2,  6) (  3,  2, 10) (  3,  1,  7)
    -0.3258       -0.8079        -1.842       -0.4594        0.3145    
  (  3,  1, 10) (  3,  1,  1) (  3,  1, 10) (  3,  3,  6) (  3,  3,  1)
    -0.7314E-01   -0.1240E-01   -0.9075E-02   -0.5975E-02   -0.5235E-02
  (  2,  8,  1) (  3,  3,  7) (  3,  3,  7) (  3,  3,  6) (  3,  3,  6)
    -0.1472E-02   -0.2843E-02    0.1508E-02    0.1107E-02    0.2077E-02
  (  3,  3,  9) (  3,  3,  7) (  3,  7,  2) (  3,  9, 10) (  3,  2,  1)
     0.1685E-02    0.2130E-02    0.3789E-02    0.2348E-02    0.1781E-02
  (  3,  2, 10) (  3,  2,  1) (  3,  1, 10) (  3,  2, 10) (  3,  2, 10)
     0.1201E-02    0.1170E-02    0.7989E-03    0.5777E-03    0.4230E-03
  (  3,  1, 10) (  3,  2,  9) (  3,  2, 10) (  3,  2, 10) (  3,  2, 10)
     0.2767E-03    0.2825E-03    0.1962E-03    0.1373E-03    0.1052E-03
  (  3,  2, 10) (  3,  2,  9) (  3,  2,  9) (  3,  2, 10) (  3,  2, 10)
     0.6891E-04    0.6930E-04    0.4597E-04    0.3415E-04    0.2418E-04
  (  3,  1, 10) (  3,  2,  9) (  3,  2, 10) (  3,  2, 10) (  3,  2, 10)
     0.1691E-04    0.1608E-04    0.1196E-04    0.7381E-05
  (  3,  2, 10) (  3,  2,  9) (  3,  2,  9) (  3,  2, 10)


 OUTPUT CONTROL FOR STRESS PERIOD    7   TIME STEP   1
    SAVE HEAD FOR ALL LAYERS

 HEAD WILL BE SAVED ON UNIT   21 AT END OF TIME STEP   1, STRESS PERIOD    7
 
 SOLVING FOR HEAD 
    41 ITERATIONS FOR TIME STEP   2 IN STRESS PERIOD    7

 MAXIMUM HEAD CHANGE FOR EACH ITERATION:

    HEAD CHANGE   HEAD CHANGE   HEAD CHANGE   HEAD CHANGE   HEAD CHANGE
  LAYER,ROW,COL LAYER,ROW,COL LAYER,ROW,COL LAYER,ROW,COL LAYER,ROW,COL
 ----------------------------------------------------------------------
      1.466         3.740         2.848        -1.862        -3.348    
  (  3,  1,  7) (  3,  2,  9) (  3,  1,  1) (  3,  1, 10) (  3,  1,  5)
    -0.2490       -0.6286        -1.620        0.4563        0.4408E-01
  (  3,  1, 10) (  3,  1,  1) (  3,  1, 10) (  3, 10,  1) (  2, 10,  9)
    -0.6764E-01   -0.1330E-01   -0.7926E-02   -0.6354E-02   -0.3289E-02
  (  2,  8,  1) (  3,  3,  7) (  3,  3,  6) (  3,  3,  7) (  3,  3,  6)
    -0.2380E-02    0.2967E-02    0.1737E-02    0.3688E-02    0.2030E-02
  (  3,  3,  6) (  3,  1, 10) (  3,  7,  1) (  3,  1, 10) (  3,  6,  1)
     0.3453E-02    0.3551E-02    0.2379E-02    0.1598E-02    0.1176E-02
  (  3,  1,  1) (  3,  2,  2) (  3,  1,  1) (  3,  1,  1) (  3,  1,  1)
     0.7273E-03    0.7918E-03    0.5264E-03    0.3697E-03    0.2735E-03
  (  3,  1,  1) (  3,  1,  1) (  3,  2,  1) (  3,  1,  1) (  3,  1,  1)
     0.1758E-03    0.1811E-03    0.1256E-03    0.8496E-04    0.6278E-04
  (  3,  1,  1) (  3,  2,  2) (  3,  1,  1) (  3,  1,  1) (  3,  1,  1)
     0.3877E-04    0.4199E-04    0.2791E-04    0.1973E-04    0.1443E-04
  (  3,  1,  1) (  3,  1,  1) (  3,  2,  1) (  3,  1,  1) (  3,  1,  1)
     0.9397E-05
  (  3,  1,  1)


 OUTPUT CONTROL FOR STRESS PERIOD    7   TIME STEP   2
    SAVE HEAD FOR ALL LAYERS

 HEAD WILL BE SAVED ON UNIT   21 AT END OF TIME STEP   2, STRESS PERIOD    7
 
 SOLVING FOR HEAD 
    39 ITERATIONS FOR TIME STEP   3 IN STRESS PERIOD    7

 MAXIMUM HEAD CHANGE FOR EACH ITERATION:

    HEAD CHANGE   HEAD CHANGE   HEAD CHANGE   HEAD CHANGE   HEAD CHANGE
  LAYER,ROW,COL LAYER,ROW,COL LAYER,ROW,COL LAYER,ROW,COL LAYER,ROW,COL
 ----------------------------------------------------------------------
      1.323         3.161         2.548        -1.696        -3.368    
  (  3,  2, 10) (  3,  1, 10) (  3,  1,  1) (  3,  2,  9) (  3,  1,  1)
    -0.1747       -0.4325        -1.154        0.7238        0.9787E-01
  (  3,  1, 10) (  3,  2, 10) (  3,  1, 10) (  3,  1, 10) (  2, 10, 10)
    -0.5297E-01   -0.1559E-01   -0.1087E-01   -0.4943E-02   -0.4197E-02
  (  2, 10, 10) (  2,  1,  2) (  3,  3,  6) (  3,  3,  7) (  3,  3,  6)
     0.2185E-02    0.2231E-02    0.4022E-02    0.3817E-02    0.2735E-02
  (  3,  1,  1) (  3,  7,  2) (  3,  1,  1) (  3,  1, 10) (  3,  1, 10)
     0.1622E-02    0.1872E-02    0.1241E-02    0.8336E-03    0.6217E-03
  (  3,  1, 10) (  3,  1, 10) (  3,  2, 10) (  3,  1, 10) (  3,  1, 10)
     0.3786E-03    0.3962E-03    0.2801E-03    0.1879E-03    0.1313E-03
  (  3,  1, 10) (  3,  2, 10) (  3,  1, 10) (  3,  1, 10) (  3,  1, 10)
     0.7984E-04    0.9082E-04    0.6150E-04    0.4014E-04    0.3058E-04
  (  3,  1, 10) (  3,  1, 10) (  3,  2, 10) (  3,  1, 10) (  3,  1, 10)
     0.1839E-04    0.1899E-04    0.1324E-04    0.8859E-05
  (  3,  1, 10) (  3,  2, 10) (  3,  1, 10) (  3,  1, 10)


 OUTPUT CONTROL FOR STRESS PERIOD    7   TIME STEP   3
    SAVE HEAD FOR ALL LAYERS

 HEAD WILL BE SAVED ON UNIT   21 AT END OF TIME STEP   3, STRESS PERIOD    7
 
 SOLVING FOR HEAD 
    36 ITERATIONS FOR TIME STEP   4 IN STRESS PERIOD    7

 MAXIMUM HEAD CHANGE FOR EACH ITERATION:

    HEAD CHANGE   HEAD CHANGE   HEAD CHANGE   HEAD CHANGE   HEAD CHANGE
  LAYER,ROW,COL LAYER,ROW,COL LAYER,ROW,COL LAYER,ROW,COL LAYER,ROW,COL
 ----------------------------------------------------------------------
      1.217         2.350         1.567        -1.473        -3.157    
  (  3,  3, 10) (  3,  1, 10) (  3,  2,  1) (  3,  2, 10) (  3,  1,  1)
     0.5313        0.2429        0.3235E-01   -0.3054E-01   -0.2080E-01
  (  3, 10, 10) (  3,  9,  3) (  3,  9,  1) (  3,  3,  7) (  3,  3,  6)
     0.1587E-01   -0.1248E-01   -0.9741E-02   -0.2549E-02   -0.2496E-02
  (  2,  6,  1) (  3,  3,  6) (  3,  3,  7) (  3,  4,  6) (  3,  3,  7)
     0.3082E-02    0.3658E-02    0.2470E-02    0.1571E-02    0.1178E-02
  (  3,  1,  1) (  3,  1,  1) (  3,  1,  4) (  3,  1, 10) (  3,  1,  1)
     0.6490E-03    0.7280E-03    0.5333E-03    0.3451E-03    0.2495E-03
  (  3,  1,  1) (  3,  1,  2) (  3,  1,  1) (  3,  1,  1) (  3,  1, 10)
     0.1432E-03    0.1627E-03    0.1106E-03    0.7487E-04    0.5493E-04
  (  3,  1,  1) (  3,  1,  1) (  3,  1,  2) (  3,  1, 10) (  3,  1,  1)
     0.3058E-04    0.3232E-04    0.2427E-04    0.1624E-04    0.1203E-04
  (  3,  1,  1) (  3,  1,  2) (  3,  1, 10) (  3,  1,  6) (  3,  1, 10)
     0.5788E-05
  (  3,  1,  6)


 OUTPUT CONTROL FOR STRESS PERIOD    7   TIME STEP   4
    SAVE HEAD FOR ALL LAYERS

 HEAD WILL BE SAVED ON UNIT   21 AT END OF TIME STEP   4, STRESS PERIOD    7
 
 SOLVING FOR HEAD 
    35 ITERATIONS FOR TIME STEP   5 IN STRESS PERIOD    7

 MAXIMUM HEAD CHANGE FOR EACH ITERATION:

    HEAD CHANGE   HEAD CHANGE   HEAD CHANGE   HEAD CHANGE   HEAD CHANGE
  LAYER,ROW,COL LAYER,ROW,COL LAYER,ROW,COL LAYER,ROW,COL LAYER,ROW,COL
 ----------------------------------------------------------------------
     0.7307         1.323         1.148        -1.395        -2.727    
  (  3,  1, 10) (  3,  2, 10) (  3,  1,  1) (  3,  1, 10) (  3,  1,  1)
     0.9029        0.5407        0.1613        0.8024E-01   -0.7901E-01
  (  3, 10,  1) (  3,  9,  3) (  2,  1,  8) (  2, 10,  1) (  3, 10,  1)
     0.8805E-01   -0.1566E-01   -0.1153E-01   -0.6820E-02   -0.4431E-02
  (  2,  6,  1) (  3,  3,  6) (  3,  3,  6) (  3,  9,  1) (  3,  9,  2)
    -0.2024E-02   -0.3093E-02   -0.2329E-02   -0.1294E-02   -0.8956E-03
  (  3, 10,  1) (  3,  9,  3) (  3,  9,  2) (  3,  3,  6) (  3,  3,  6)
    -0.4242E-03   -0.5873E-03   -0.4647E-03   -0.2813E-03   -0.1906E-03
  (  3,  3,  6) (  3,  3,  6) (  3,  3,  6) (  3,  3,  6) (  3,  3,  6)
    -0.9974E-04   -0.1254E-03   -0.1015E-03   -0.6205E-04   -0.4402E-04
  (  3,  3,  6) (  3,  3,  6) (  3,  3,  6) (  3,  3,  6) (  3,  3,  6)
    -0.2499E-04   -0.2577E-04   -0.2092E-04   -0.1381E-04   -0.7163E-05
  (  3,  3,  6) (  3,  3,  6) (  3,  3,  6) (  3,  3,  6) (  3,  3,  6)


 OUTPUT CONTROL FOR STRESS PERIOD    7   TIME STEP   5
    SAVE HEAD FOR ALL LAYERS

 HEAD WILL BE SAVED ON UNIT   21 AT END OF TIME STEP   5, STRESS PERIOD    7
 
 SOLVING FOR HEAD 
    34 ITERATIONS FOR TIME STEP   6 IN STRESS PERIOD    7

 MAXIMUM HEAD CHANGE FOR EACH ITERATION:

    HEAD CHANGE   HEAD CHANGE   HEAD CHANGE   HEAD CHANGE   HEAD CHANGE
  LAYER,ROW,COL LAYER,ROW,COL LAYER,ROW,COL LAYER,ROW,COL LAYER,ROW,COL
 ----------------------------------------------------------------------
     0.4977        0.7192        0.3683        -1.484        0.5427    
  (  3,  1, 10) (  3,  2, 10) (  3,  2,  4) (  3,  1, 10) (  3, 10,  1)
     0.7289E-01   -0.5410E-01   -0.4528E-01   -0.2380E-01   -0.1162E-01
  (  2,  3,  1) (  3,  3,  7) (  3,  3,  7) (  3,  3,  7) (  3,  3,  7)
    -0.1286E-01   -0.7080E-02   -0.5956E-02   -0.3320E-02   -0.2168E-02
  (  2,  7,  1) (  3,  3,  7) (  3,  3,  6) (  3,  3,  7) (  3,  3,  6)
    -0.9874E-03   -0.1417E-02   -0.1196E-02   -0.6955E-03   -0.4614E-03
  (  3,  3,  6) (  3,  3,  6) (  3,  3,  6) (  3,  3,  6) (  3,  3,  6)
    -0.2366E-03   -0.3008E-03   -0.2562E-03   -0.1535E-03   -0.1089E-03
  (  3,  3,  6) (  3,  3,  6) (  3,  3,  6) (  3,  3,  6) (  3,  3,  6)
    -0.5733E-04   -0.6831E-04   -0.5814E-04   -0.3907E-04   -0.2507E-04
  (  3,  3,  6) (  3,  3,  6) (  3,  3,  6) (  3,  3,  6) (  3,  3,  6)
    -0.1511E-04   -0.1260E-04   -0.1064E-04   -0.4826E-05
  (  3,  3,  6) (  3,  3,  6) (  3,  3,  6) (  3,  3,  6)


 OUTPUT CONTROL FOR STRESS PERIOD    7   TIME STEP   6
    PRINT BUDGET
    PRINT HEAD FOR ALL LAYERS
    SAVE HEAD FOR ALL LAYERS
    SAVE DRAWDOWN FOR ALL LAYERS
1
              HEAD IN LAYER   1 AT END OF TIME STEP   6 IN STRESS PERIOD    7
  ---------------------------------------------------------------------------

           1       2       3       4       5       6       7       8       9      10
 ...................................................................................
   1    21.97   21.63   20.97   20.55   20.35   20.35   20.55   20.96   21.62   21.97
   2    20.94   20.44   20.02   19.72   19.57   19.57   19.72   20.01   20.43   20.93
   3    19.44   18.95   18.58   18.34   18.21   18.21   18.33   18.57   18.94   19.43
   4    17.39   16.96   16.67   16.48   16.38   16.38   16.47   16.66   16.95   17.38
   5    14.49   14.40   14.30   14.22   14.18   14.17   14.22   14.30   14.40   14.48
   6    11.89   11.87   11.83   11.79   11.77   11.77   11.79   11.82   11.86   11.89
   7     9.36    9.33    9.30    9.26    9.24    9.24    9.26    9.29    9.33    9.35
   8     6.87    6.81    6.72    6.62    6.56    6.56    6.62    6.71    6.81    6.87
   9     4.56    4.39    4.09    3.75    3.61    3.61    3.75    4.09    4.39    4.56
  10     2.89    2.47    1.56    0.00    0.00    0.00    0.00    1.56    2.47    2.89
1
              HEAD IN LAYER   2 AT END OF TIME STEP   6 IN STRESS PERIOD    7
  ---------------------------------------------------------------------------

           1       2       3       4       5       6       7       8       9      10
 ...................................................................................
   1     1.93    1.95    1.97    1.97    1.96    1.95    1.93    1.90    1.86    1.81
   2     1.75    3.29    3.10    2.64    2.17    1.82    1.86    2.19    2.45    1.58
   3     1.51    2.60    2.21    1.43    0.30   -1.25   -0.84    0.48    1.34    1.30
   4     1.23    2.02    1.71    1.14    0.41   -0.42   -0.26    0.45    1.00    1.01
   5     0.91    1.44    1.32    1.06    0.79    0.58    0.57    0.70    0.83    0.70
   6     0.57    0.84    0.79    0.69    0.58    0.50    0.48    0.49    0.51    0.39
   7     0.22    0.13    0.07    0.01   -0.04   -0.07   -0.09   -0.08   -0.04    0.08
   8    -0.13   -0.70   -0.84   -0.91   -0.96   -0.97   -0.96   -0.91   -0.79   -0.24
   9    -0.46   -1.56   -1.85   -2.02   -2.10   -2.11   -2.05   -1.89   -1.61   -0.53
  10    -0.75   -0.82   -0.87   -0.91   -0.94   -0.94   -0.93   -0.89   -0.85   -0.79
1
              HEAD IN LAYER   3 AT END OF TIME STEP   6 IN STRESS PERIOD    7
  ---------------------------------------------------------------------------

           1       2       3       4       5       6       7       8       9      10
 ...................................................................................
   1   -12.84  -12.99  -13.28  -13.65  -14.05  -14.37  -14.50  -14.48  -14.39  -14.33
   2   -13.02  -13.26  -13.74  -14.43  -15.25  -15.98  -16.03  -15.62  -15.20  -14.97
   3   -13.05  -13.41  -14.20  -15.55  -17.72  -21.28  -20.40  -17.70  -16.23  -15.59
   4   -12.38  -12.68  -13.29  -14.27  -15.65  -17.48  -17.18  -15.83  -14.96  -14.53
   5   -11.24  -11.41  -11.72  -12.16  -12.66  -13.08  -13.15  -12.95  -12.73  -12.60
   6   -10.07  -10.15  -10.29  -10.47  -10.66  -10.82  -10.89  -10.89  -10.85  -10.83
   7    -9.10   -9.13   -9.19   -9.27   -9.36   -9.43   -9.47   -9.49   -9.50   -9.50
   8    -8.39   -8.41   -8.44   -8.48   -8.51   -8.55   -8.58   -8.59   -8.60   -8.61
   9    -7.95   -7.96   -7.97   -7.99   -8.01   -8.03   -8.05   -8.06   -8.06   -8.06
  10    -7.73   -7.73   -7.74   -7.76   -7.77   -7.78   -7.79   -7.80   -7.81   -7.81

 HEAD WILL BE SAVED ON UNIT   21 AT END OF TIME STEP   6, STRESS PERIOD    7

 DRAWDOWN WILL BE SAVED ON UNIT   22 AT END OF TIME STEP   6, STRESS PERIOD    7
1
  VOLUMETRIC BUDGET FOR ENTIRE MODEL AT END OF TIME STEP  6 IN STRESS PERIOD   7
  ------------------------------------------------------------------------------

     CUMULATIVE VOLUMES      L**3       RATES FOR THIS TIME STEP      L**3/T
     ------------------                 ------------------------

           IN:                                      IN:
           ---                                      ---
             STORAGE =    12026633.0000               STORAGE =        4848.3047
       CONSTANT HEAD =       14938.9668         CONSTANT HEAD =          22.2827
               WELLS =    65784000.0000                 WELLS =       30000.0000
    INST. IB STORAGE =    19069058.0000      INST. IB STORAGE =        6080.8882
    DELAY IB STORAGE =    31480680.0000      DELAY IB STORAGE =       16635.3418

            TOTAL IN =   128375312.0000              TOTAL IN =       57586.8164

          OUT:                                     OUT:
          ----                                     ----
             STORAGE =           0.0000               STORAGE =           0.0000
       CONSTANT HEAD =    62621360.0000         CONSTANT HEAD =       27586.8887
               WELLS =    65754000.0000                 WELLS =       30000.0000
    INST. IB STORAGE =           0.0000      INST. IB STORAGE =           0.0000
    DELAY IB STORAGE =           0.0000      DELAY IB STORAGE =           0.0000

           TOTAL OUT =   128375360.0000             TOTAL OUT =       57586.8906

            IN - OUT =         -48.0000              IN - OUT =      -7.4219E-02

 PERCENT DISCREPANCY =           0.00     PERCENT DISCREPANCY =           0.00






          TIME SUMMARY AT END OF TIME STEP   6 IN STRESS PERIOD    7
                    SECONDS     MINUTES      HOURS       DAYS        YEARS
                    -----------------------------------------------------------
   TIME STEP LENGTH 9.18681E+06 1.53113E+05  2551.9      106.33     0.29111    
 STRESS PERIOD TIME 3.15619E+07 5.26032E+05  8767.2      365.30      1.0001    
         TOTAL TIME 1.89458E+08 3.15763E+06  52627.      2192.8      6.0036    
1

                               VOLUMETRIC BUDGET FOR SYSTEMS OF DELAY INTERBEDS
                                          AT END OF TIME STEP  6 IN STRESS PERIOD  7

          |   C U M U L A T I V E   V O L U M E S   L**3           | R A T E S   F O R  T H I S  T I M E  S T E P   L**3/T  |
   SYSTEM |    CHANGE IN     BOUNDARY                    PERCENT   |    CHANGE IN     BOUNDARY                    PERCENT   |
   NUMBER |     STORAGE        FLOW           SUM      DISCREPANCY |     STORAGE        FLOW           SUM      DISCREPANCY |
  --------|--------------------------------------------------------|--------------------------------------------------------|
      1     28117.        -28117.        0.19531E-02    0.69465E-05     12.109        -12.109        0.47684E-05    0.39379E-04
      2    0.31453E+08   -0.31453E+08    -2.0000       -0.63588E-05     16623.        -16623.        0.58594E-02    0.35248E-04
  --------|--------------------------------------------------------|--------------------------------------------------------|
 TOTALS:    0.31481E+08   -0.31481E+08    -2.0000       -0.63531E-05     16635.        -16635.        0.58594E-02    0.35222E-04
1
                            STRESS PERIOD NO.    8, LENGTH =   365.3000    
                            -----------------------------------------------

                              NUMBER OF TIME STEPS =     6

                               MULTIPLIER FOR DELT =     1.300

                            INITIAL TIME STEP SIZE =   28.63744    

 REUSING NON-PARAMETER WELLS FROM LAST STRESS PERIOD

     14 WELLS
 
 SOLVING FOR HEAD 

    44 ITERATIONS FOR TIME STEP   1 IN STRESS PERIOD    8

 MAXIMUM HEAD CHANGE FOR EACH ITERATION:

    HEAD CHANGE   HEAD CHANGE   HEAD CHANGE   HEAD CHANGE   HEAD CHANGE
  LAYER,ROW,COL LAYER,ROW,COL LAYER,ROW,COL LAYER,ROW,COL LAYER,ROW,COL
 ----------------------------------------------------------------------
      2.211         4.863         3.172        -2.134        -3.225    
  (  3,  3, 10) (  3,  1,  8) (  3,  1,  1) (  3,  1,  6) (  3,  1,  6)
    -0.3328       -0.8072        -1.867        -1.078        0.8935    
  (  3,  1, 10) (  3,  1,  1) (  3,  1, 10) (  3,  1,  1) (  3,  1,  1)
    -0.7509E-01   -0.1200E-01   -0.8021E-02   -0.6536E-02   -0.4179E-02
  (  2,  8,  1) (  3,  3,  7) (  3,  3,  6) (  3,  3,  7) (  3,  3,  6)
    -0.2887E-02   -0.1828E-02   -0.1734E-02    0.1861E-02    0.1118E-02
  (  3,  3,  7) (  3,  3,  6) (  3,  3,  7) (  3,  2, 10) (  3, 10,  1)
     0.2895E-02    0.2051E-02    0.3179E-02    0.2270E-02    0.1634E-02
  (  3,  1, 10) (  3,  1,  5) (  3,  1,  1) (  3,  1,  5) (  3,  1,  5)
     0.1078E-02    0.1068E-02    0.7473E-03    0.5329E-03    0.3980E-03
  (  3,  1,  5) (  3,  3,  7) (  3,  1,  5) (  3,  1,  5) (  3,  1,  5)
     0.2614E-03    0.2577E-03    0.1834E-03    0.1300E-03    0.9754E-04
  (  3,  1,  5) (  3,  3,  7) (  3,  3,  7) (  3,  1,  5) (  3,  1,  5)
     0.6509E-04    0.6371E-04    0.4442E-04    0.3232E-04    0.2356E-04
  (  3,  1,  5) (  3,  3,  7) (  3,  1,  5) (  3,  3,  7) (  3,  1,  5)
     0.1608E-04    0.1542E-04    0.1093E-04    0.4278E-05
  (  3,  1,  5) (  3,  1,  5) (  3,  1,  5) (  3,  1,  5)


 OUTPUT CONTROL FOR STRESS PERIOD    8   TIME STEP   1
    SAVE HEAD FOR ALL LAYERS

 HEAD WILL BE SAVED ON UNIT   21 AT END OF TIME STEP   1, STRESS PERIOD    8
 
 SOLVING FOR HEAD 
    42 ITERATIONS FOR TIME STEP   2 IN STRESS PERIOD    8

 MAXIMUM HEAD CHANGE FOR EACH ITERATION:

    HEAD CHANGE   HEAD CHANGE   HEAD CHANGE   HEAD CHANGE   HEAD CHANGE
  LAYER,ROW,COL LAYER,ROW,COL LAYER,ROW,COL LAYER,ROW,COL LAYER,ROW,COL
 ----------------------------------------------------------------------
      1.472         4.243         2.969        -1.715        -3.502    
  (  3,  3,  7) (  3,  1, 10) (  3,  1,  1) (  3,  1, 10) (  3,  1,  1)
    -0.2753       -0.6316        -1.608        0.4214        0.4035E-01
  (  3,  1, 10) (  3,  1,  1) (  3,  1, 10) (  3, 10,  1) (  2, 10,  1)
    -0.7151E-01   -0.1093E-01   -0.7201E-02   -0.4906E-02   -0.2226E-02
  (  2,  8,  1) (  3,  3,  7) (  3,  3,  7) (  3,  3,  6) (  3,  3,  8)
    -0.2422E-02    0.1800E-02    0.1524E-02    0.3120E-02    0.1882E-02
  (  3,  3,  6) (  3,  1,  1) (  3, 10,  5) (  3,  1,  1) (  3,  1,  1)
     0.2723E-02    0.3454E-02    0.2715E-02    0.1886E-02    0.1383E-02
  (  3,  1,  1) (  3,  1, 10) (  3,  3,  8) (  3,  3,  8) (  3,  3,  8)
     0.8689E-03    0.9382E-03    0.6527E-03    0.4424E-03    0.3259E-03
  (  3,  1, 10) (  3,  3,  8) (  3,  3,  8) (  3,  3,  8) (  3,  3,  8)
     0.1909E-03    0.2203E-03    0.1535E-03    0.1046E-03    0.7719E-04
  (  3,  3,  8) (  3,  3,  8) (  3,  3,  8) (  3,  3,  8) (  3,  3,  8)
     0.4632E-04    0.5199E-04    0.3634E-04    0.2534E-04    0.1871E-04
  (  3,  3,  8) (  3,  3,  8) (  3,  3,  8) (  3,  3,  8) (  3,  3,  8)
     0.1098E-04    0.7184E-05
  (  3,  3,  8) (  3,  3,  8)


 OUTPUT CONTROL FOR STRESS PERIOD    8   TIME STEP   2
    SAVE HEAD FOR ALL LAYERS

 HEAD WILL BE SAVED ON UNIT   21 AT END OF TIME STEP   2, STRESS PERIOD    8
 
 SOLVING FOR HEAD 
    40 ITERATIONS FOR TIME STEP   3 IN STRESS PERIOD    8

 MAXIMUM HEAD CHANGE FOR EACH ITERATION:

    HEAD CHANGE   HEAD CHANGE   HEAD CHANGE   HEAD CHANGE   HEAD CHANGE
  LAYER,ROW,COL LAYER,ROW,COL LAYER,ROW,COL LAYER,ROW,COL LAYER,ROW,COL
 ----------------------------------------------------------------------
      1.405         2.767         2.540        -1.413        -3.397    
  (  3,  2, 10) (  3,  1,  9) (  3,  1,  1) (  3,  2, 10) (  3,  1,  1)
    -0.1882       -0.4712        -1.252        0.6488        0.1103    
  (  3,  1, 10) (  3,  1,  1) (  3,  1, 10) (  3,  1, 10) (  2, 10, 10)
    -0.6226E-01   -0.1367E-01   -0.6176E-02   -0.6135E-02    0.2125E-02
  (  2, 10, 10) (  3,  3,  7) (  3,  3,  7) (  3,  3,  7) (  3,  1,  1)
    -0.1920E-02    0.2804E-02    0.2385E-02    0.4404E-02    0.3074E-02
  (  3,  3,  7) (  3,  1, 10) (  3,  6,  1) (  3,  1, 10) (  3,  1,  3)
     0.1762E-02    0.2081E-02    0.1404E-02    0.9188E-03    0.6755E-03
  (  3,  1, 10) (  3,  1, 10) (  3,  2,  9) (  3,  1, 10) (  3,  1, 10)
     0.4106E-03    0.4457E-03    0.3071E-03    0.2030E-03    0.1454E-03
  (  3,  1, 10) (  3,  2,  9) (  3,  1, 10) (  3,  2, 10) (  3,  1,  3)
     0.8403E-04    0.9896E-04    0.6838E-04    0.4415E-04    0.3307E-04
  (  3,  1, 10) (  3,  1, 10) (  3,  2,  9) (  3,  1,  3) (  3,  2, 10)
     0.1909E-04    0.2175E-04    0.1474E-04    0.1052E-04    0.4107E-05
  (  3,  1, 10) (  3,  2,  9) (  3,  1,  3) (  3,  2, 10) (  3,  2, 10)


 OUTPUT CONTROL FOR STRESS PERIOD    8   TIME STEP   3
    SAVE HEAD FOR ALL LAYERS

 HEAD WILL BE SAVED ON UNIT   21 AT END OF TIME STEP   3, STRESS PERIOD    8
 
 SOLVING FOR HEAD 
    36 ITERATIONS FOR TIME STEP   4 IN STRESS PERIOD    8

 MAXIMUM HEAD CHANGE FOR EACH ITERATION:

    HEAD CHANGE   HEAD CHANGE   HEAD CHANGE   HEAD CHANGE   HEAD CHANGE
  LAYER,ROW,COL LAYER,ROW,COL LAYER,ROW,COL LAYER,ROW,COL LAYER,ROW,COL
 ----------------------------------------------------------------------
     0.8299         2.418         1.782        -1.277        -3.228    
  (  3,  2,  7) (  3,  1, 10) (  3,  2,  1) (  3,  1, 10) (  3,  1,  1)
     0.4206        0.1801       -0.3369E-01   -0.2727E-01   -0.1919E-01
  (  3, 10, 10) (  3,  9,  6) (  3,  2,  8) (  3,  3,  6) (  3,  3,  7)
    -0.9900E-02   -0.1220E-01   -0.8416E-02   -0.2841E-02    0.1802E-02
  (  3,  3,  6) (  3,  3,  7) (  3,  3,  6) (  3,  3,  7) (  3,  7,  5)
     0.3117E-02    0.4061E-02    0.2970E-02    0.1887E-02    0.1314E-02
  (  3,  1,  1) (  3,  1,  1) (  3,  1, 10) (  3,  1, 10) (  3,  1, 10)
     0.7263E-03    0.9105E-03    0.6127E-03    0.3885E-03    0.2841E-03
  (  3,  1, 10) (  3,  1, 10) (  3,  1,  1) (  3,  1, 10) (  3,  1, 10)
     0.1619E-03    0.1800E-03    0.1299E-03    0.8337E-04    0.5699E-04
  (  3,  1, 10) (  3,  1,  1) (  3,  1, 10) (  3,  1, 10) (  3,  1, 10)
     0.3232E-04    0.3972E-04    0.2648E-04    0.1705E-04    0.1269E-04
  (  3,  1, 10) (  3,  1, 10) (  3,  1, 10) (  3,  1, 10) (  3,  1, 10)
     0.6858E-05
  (  3,  1, 10)


 OUTPUT CONTROL FOR STRESS PERIOD    8   TIME STEP   4
    SAVE HEAD FOR ALL LAYERS

 HEAD WILL BE SAVED ON UNIT   21 AT END OF TIME STEP   4, STRESS PERIOD    8
 
 SOLVING FOR HEAD 
    34 ITERATIONS FOR TIME STEP   5 IN STRESS PERIOD    8

 MAXIMUM HEAD CHANGE FOR EACH ITERATION:

    HEAD CHANGE   HEAD CHANGE   HEAD CHANGE   HEAD CHANGE   HEAD CHANGE
  LAYER,ROW,COL LAYER,ROW,COL LAYER,ROW,COL LAYER,ROW,COL LAYER,ROW,COL
 ----------------------------------------------------------------------
     0.7405         1.463         1.131        -1.325        -2.789    
  (  3,  3, 10) (  3,  1,  9) (  3,  2,  1) (  3,  1, 10) (  3,  1,  1)
     0.8252        0.4959        0.1439        0.6175E-01   -0.3814E-01
  (  3, 10,  1) (  3,  9,  3) (  2,  1,  8) (  2, 10,  1) (  2, 10, 10)
     0.8062E-01   -0.1497E-01   -0.9425E-02   -0.5026E-02   -0.3362E-02
  (  2,  6,  1) (  3,  3,  7) (  3,  9,  5) (  3,  9,  3) (  3,  9,  3)
    -0.2918E-02   -0.2334E-02   -0.1757E-02   -0.9436E-03   -0.6366E-03
  (  2,  6,  1) (  3,  9,  3) (  3,  9,  2) (  3,  9,  5) (  3,  3,  6)
    -0.3086E-03   -0.4304E-03   -0.3344E-03   -0.2019E-03   -0.1401E-03
  (  3,  3,  6) (  3,  9,  2) (  3,  3,  6) (  3,  3,  6) (  3,  3,  6)
    -0.7233E-04   -0.9113E-04   -0.7422E-04   -0.4634E-04   -0.3137E-04
  (  3,  3,  6) (  3,  3,  6) (  3,  3,  6) (  3,  3,  6) (  3,  3,  6)
    -0.1770E-04   -0.1771E-04   -0.1475E-04   -0.8787E-05
  (  3,  3,  6) (  3,  3,  6) (  3,  3,  6) (  3,  3,  6)


 OUTPUT CONTROL FOR STRESS PERIOD    8   TIME STEP   5
    SAVE HEAD FOR ALL LAYERS

 HEAD WILL BE SAVED ON UNIT   21 AT END OF TIME STEP   5, STRESS PERIOD    8
 
 SOLVING FOR HEAD 
    34 ITERATIONS FOR TIME STEP   6 IN STRESS PERIOD    8

 MAXIMUM HEAD CHANGE FOR EACH ITERATION:

    HEAD CHANGE   HEAD CHANGE   HEAD CHANGE   HEAD CHANGE   HEAD CHANGE
  LAYER,ROW,COL LAYER,ROW,COL LAYER,ROW,COL LAYER,ROW,COL LAYER,ROW,COL
 ----------------------------------------------------------------------
     0.5221        0.7493        0.4305        -1.382       -0.8675    
  (  3,  1, 10) (  3,  2, 10) (  3,  2,  1) (  3,  1, 10) (  3,  1,  1)
     0.3801        0.1979        0.4543E-01   -0.2400E-01   -0.1968E-01
  (  3,  1, 10) (  3,  2,  2) (  2,  1,  9) (  3,  3,  6) (  2,  1, 10)
     0.1369E-01   -0.1110E-01   -0.9294E-02   -0.4952E-02   -0.3145E-02
  (  2,  7,  1) (  3,  3,  6) (  3,  3,  6) (  3,  3,  6) (  3,  3,  6)
    -0.2338E-02   -0.2086E-02   -0.1756E-02   -0.9555E-03   -0.6265E-03
  (  2,  7,  1) (  3,  3,  6) (  3,  3,  6) (  3,  3,  6) (  3,  3,  6)
    -0.3542E-03   -0.4112E-03   -0.3443E-03   -0.1963E-03   -0.1312E-03
  (  2,  7,  1) (  3,  3,  6) (  3,  3,  6) (  3,  3,  6) (  3,  3,  6)
    -0.6297E-04   -0.8492E-04   -0.7164E-04   -0.4329E-04   -0.2882E-04
  (  3,  3,  6) (  3,  3,  6) (  3,  3,  6) (  3,  3,  6) (  3,  3,  6)
    -0.1532E-04   -0.1489E-04   -0.1083E-04   -0.4757E-05
  (  3,  3,  6) (  3,  3,  6) (  3,  3,  6) (  3,  3,  6)


 OUTPUT CONTROL FOR STRESS PERIOD    8   TIME STEP   6
    PRINT BUDGET
    PRINT HEAD FOR ALL LAYERS
    SAVE HEAD FOR ALL LAYERS
    SAVE DRAWDOWN FOR ALL LAYERS
1
              HEAD IN LAYER   1 AT END OF TIME STEP   6 IN STRESS PERIOD    8
  ---------------------------------------------------------------------------

           1       2       3       4       5       6       7       8       9      10
 ...................................................................................
   1    21.85   21.51   20.84   20.43   20.22   20.22   20.42   20.84   21.50   21.85
   2    20.82   20.32   19.90   19.60   19.45   19.45   19.60   19.89   20.31   20.81
   3    19.32   18.83   18.47   18.22   18.10   18.09   18.21   18.46   18.82   19.31
   4    17.28   16.85   16.55   16.36   16.27   16.27   16.36   16.55   16.84   17.27
   5    14.39   14.30   14.20   14.12   14.07   14.07   14.11   14.19   14.29   14.38
   6    11.80   11.77   11.73   11.70   11.68   11.68   11.70   11.73   11.77   11.80
   7     9.28    9.26    9.22    9.18    9.16    9.16    9.18    9.22    9.25    9.28
   8     6.81    6.75    6.66    6.56    6.51    6.51    6.56    6.65    6.75    6.80
   9     4.52    4.35    4.05    3.72    3.58    3.58    3.72    4.05    4.35    4.52
  10     2.86    2.45    1.55    0.00    0.00    0.00    0.00    1.55    2.45    2.86
1
              HEAD IN LAYER   2 AT END OF TIME STEP   6 IN STRESS PERIOD    8
  ---------------------------------------------------------------------------

           1       2       3       4       5       6       7       8       9      10
 ...................................................................................
   1     1.53    1.56    1.57    1.57    1.56    1.55    1.52    1.50    1.46    1.42
   2     1.36    2.84    2.64    2.17    1.70    1.34    1.38    1.71    1.98    1.19
   3     1.14    2.17    1.76    0.98   -0.16   -1.71   -1.31    0.02    0.88    0.92
   4     0.87    1.62    1.30    0.72   -0.02   -0.85   -0.69    0.02    0.58    0.64
   5     0.57    1.07    0.95    0.69    0.41    0.20    0.19    0.32    0.46    0.36
   6     0.24    0.52    0.47    0.36    0.26    0.18    0.15    0.17    0.18    0.06
   7    -0.09   -0.14   -0.20   -0.26   -0.31   -0.35   -0.36   -0.35   -0.33   -0.24
   8    -0.42   -0.93   -1.06   -1.13   -1.18   -1.20   -1.19   -1.14   -1.03   -0.53
   9    -0.74   -1.76   -2.04   -2.22   -2.30   -2.31   -2.25   -2.09   -1.82   -0.81
  10    -1.02   -1.08   -1.14   -1.18   -1.20   -1.20   -1.19   -1.16   -1.12   -1.06
1
              HEAD IN LAYER   3 AT END OF TIME STEP   6 IN STRESS PERIOD    8
  ---------------------------------------------------------------------------

           1       2       3       4       5       6       7       8       9      10
 ...................................................................................
   1   -13.65  -13.80  -14.10  -14.48  -14.89  -15.21  -15.35  -15.33  -15.24  -15.18
   2   -13.82  -14.06  -14.55  -15.24  -16.07  -16.82  -16.87  -16.46  -16.05  -15.81
   3   -13.81  -14.18  -14.98  -16.33  -18.52  -22.09  -21.22  -18.51  -17.04  -16.39
   4   -13.09  -13.39  -14.01  -14.99  -16.38  -18.22  -17.93  -16.58  -15.70  -15.27
   5   -11.87  -12.03  -12.35  -12.80  -13.30  -13.73  -13.80  -13.61  -13.39  -13.26
   6   -10.61  -10.69  -10.83  -11.02  -11.21  -11.37  -11.45  -11.45  -11.42  -11.39
   7    -9.56   -9.59   -9.66   -9.74   -9.82   -9.90   -9.94   -9.97   -9.98   -9.98
   8    -8.79   -8.80   -8.83   -8.87   -8.91   -8.95   -8.98   -8.99   -9.01   -9.01
   9    -8.29   -8.30   -8.32   -8.34   -8.36   -8.38   -8.39   -8.41   -8.41   -8.42
  10    -8.05   -8.05   -8.06   -8.08   -8.09   -8.10   -8.11   -8.12   -8.13   -8.13

 HEAD WILL BE SAVED ON UNIT   21 AT END OF TIME STEP   6, STRESS PERIOD    8

 DRAWDOWN WILL BE SAVED ON UNIT   22 AT END OF TIME STEP   6, STRESS PERIOD    8
1
  VOLUMETRIC BUDGET FOR ENTIRE MODEL AT END OF TIME STEP  6 IN STRESS PERIOD   8
  ------------------------------------------------------------------------------

     CUMULATIVE VOLUMES      L**3       RATES FOR THIS TIME STEP      L**3/T
     ------------------                 ------------------------

           IN:                                      IN:
           ---                                      ---
             STORAGE =    13770287.0000               STORAGE =        4724.8818
       CONSTANT HEAD =       24456.5117         CONSTANT HEAD =          28.5697
               WELLS =    76743008.0000                 WELLS =       30000.0000
    INST. IB STORAGE =    21240450.0000      INST. IB STORAGE =        5867.3560
    DELAY IB STORAGE =    37574956.0000      DELAY IB STORAGE =       16699.5957

            TOTAL IN =   149353152.0000              TOTAL IN =       57320.4023

          OUT:                                     OUT:
          ----                                     ----
             STORAGE =           0.0000               STORAGE =           0.0000
       CONSTANT HEAD =    72640208.0000         CONSTANT HEAD =       27320.4551
               WELLS =    76713008.0000                 WELLS =       30000.0000
    INST. IB STORAGE =           0.0000      INST. IB STORAGE =           0.0000
    DELAY IB STORAGE =           0.0000      DELAY IB STORAGE =           0.0000

           TOTAL OUT =   149353216.0000             TOTAL OUT =       57320.4531

            IN - OUT =         -64.0000              IN - OUT =      -5.0781E-02

 PERCENT DISCREPANCY =           0.00     PERCENT DISCREPANCY =           0.00






          TIME SUMMARY AT END OF TIME STEP   6 IN STRESS PERIOD    8
                    SECONDS     MINUTES      HOURS       DAYS        YEARS
                    -----------------------------------------------------------
   TIME STEP LENGTH 9.18681E+06 1.53113E+05  2551.9      106.33     0.29111    
 STRESS PERIOD TIME 3.15619E+07 5.26032E+05  8767.2      365.30      1.0001    
         TOTAL TIME 2.21020E+08 3.68366E+06  61394.      2558.1      7.0037    
1

                               VOLUMETRIC BUDGET FOR SYSTEMS OF DELAY INTERBEDS
                                          AT END OF TIME STEP  6 IN STRESS PERIOD  8

          |   C U M U L A T I V E   V O L U M E S   L**3           | R A T E S   F O R  T H I S  T I M E  S T E P   L**3/T  |
   SYSTEM |    CHANGE IN     BOUNDARY                    PERCENT   |    CHANGE IN     BOUNDARY                    PERCENT   |
   NUMBER |     STORAGE        FLOW           SUM      DISCREPANCY |     STORAGE        FLOW           SUM      DISCREPANCY |
  --------|--------------------------------------------------------|--------------------------------------------------------|
      1     32758.        -32758.         0.0000         0.0000         12.131        -12.131         0.0000         0.0000    
      2    0.37542E+08   -0.37542E+08    -8.0000       -0.21309E-04     16687.        -16687.       -0.39062E-02   -0.23408E-04
  --------|--------------------------------------------------------|--------------------------------------------------------|
 TOTALS:    0.37575E+08   -0.37575E+08    -8.0000       -0.21291E-04     16700.        -16700.       -0.39062E-02   -0.23391E-04
1
                            STRESS PERIOD NO.    9, LENGTH =   365.3000    
                            -----------------------------------------------

                              NUMBER OF TIME STEPS =     6

                               MULTIPLIER FOR DELT =     1.300

                            INITIAL TIME STEP SIZE =   28.63744    

 REUSING NON-PARAMETER WELLS FROM LAST STRESS PERIOD

     14 WELLS
 
 SOLVING FOR HEAD 

    44 ITERATIONS FOR TIME STEP   1 IN STRESS PERIOD    9

 MAXIMUM HEAD CHANGE FOR EACH ITERATION:

    HEAD CHANGE   HEAD CHANGE   HEAD CHANGE   HEAD CHANGE   HEAD CHANGE
  LAYER,ROW,COL LAYER,ROW,COL LAYER,ROW,COL LAYER,ROW,COL LAYER,ROW,COL
 ----------------------------------------------------------------------
      2.006         5.066         3.302        -2.092        -3.334    
  (  3,  3, 10) (  3,  1, 10) (  3,  1,  1) (  3,  2, 10) (  3,  1,  1)
    -0.3344       -0.8093        -1.837        -1.075        0.8221    
  (  3,  1, 10) (  3,  1,  1) (  3,  1, 10) (  3,  1,  1) (  3,  1,  1)
    -0.7526E-01   -0.1157E-01   -0.7355E-02   -0.6231E-02   -0.1637E-02
  (  2,  8,  1) (  3,  3,  7) (  3,  3,  6) (  3,  3,  6) (  3,  3,  5)
    -0.2967E-02    0.1151E-02   -0.1711E-02    0.2518E-02    0.1140E-02
  (  3,  3,  7) (  3,  1,  1) (  3,  3,  7) (  3,  1,  3) (  3,  8,  6)
     0.2142E-02    0.1853E-02    0.1857E-02    0.2191E-02    0.1687E-02
  (  3,  1,  1) (  3,  1,  4) (  3,  1,  1) (  3,  2, 10) (  3,  1,  5)
     0.1130E-02    0.1127E-02    0.7872E-03    0.5501E-03    0.4127E-03
  (  3,  1, 10) (  3,  2,  5) (  3,  2,  5) (  3,  1,  5) (  3,  2,  5)
     0.2673E-03    0.2788E-03    0.1908E-03    0.1360E-03    0.1005E-03
  (  3,  1,  5) (  3,  2,  5) (  3,  2,  5) (  3,  2,  5) (  3,  2,  5)
     0.6580E-04    0.6752E-04    0.4710E-04    0.3297E-04    0.2484E-04
  (  3,  1,  5) (  3,  2,  5) (  3,  2,  5) (  3,  2,  5) (  3,  2,  5)
     0.1646E-04    0.1700E-04    0.1123E-04    0.6558E-05
  (  3,  1,  5) (  3,  2,  5) (  3,  2,  5) (  3,  1,  5)


 OUTPUT CONTROL FOR STRESS PERIOD    9   TIME STEP   1
    SAVE HEAD FOR ALL LAYERS

 HEAD WILL BE SAVED ON UNIT   21 AT END OF TIME STEP   1, STRESS PERIOD    9
 
 SOLVING FOR HEAD 
    43 ITERATIONS FOR TIME STEP   2 IN STRESS PERIOD    9

 MAXIMUM HEAD CHANGE FOR EACH ITERATION:

    HEAD CHANGE   HEAD CHANGE   HEAD CHANGE   HEAD CHANGE   HEAD CHANGE
  LAYER,ROW,COL LAYER,ROW,COL LAYER,ROW,COL LAYER,ROW,COL LAYER,ROW,COL
 ----------------------------------------------------------------------
      1.347         4.054         2.696        -1.610        -3.365    
  (  3,  1,  1) (  3,  1, 10) (  3,  2,  6) (  3,  1, 10) (  3,  1,  1)
    -0.2632       -0.6579        -1.649        0.3613        0.3916E-01
  (  3,  1, 10) (  3,  1,  1) (  3,  1, 10) (  3, 10,  1) (  2, 10,  1)
    -0.7348E-01   -0.9213E-02   -0.7278E-02   -0.3581E-02   -0.3053E-02
  (  2,  8,  1) (  3,  3,  7) (  3,  3,  7) (  3,  3,  7) (  3,  3,  7)
     0.2342E-02    0.1565E-02    0.1314E-02    0.1927E-02    0.2466E-02
  (  3,  1,  2) (  3, 10,  6) (  3,  1,  2) (  3,  7,  4) (  3,  1,  3)
     0.1710E-02    0.4320E-02    0.3207E-02    0.2117E-02    0.1572E-02
  (  3,  1,  1) (  3,  1,  9) (  3,  2, 10) (  3,  2, 10) (  3,  2, 10)
     0.9619E-03    0.1022E-02    0.7142E-03    0.4971E-03    0.3636E-03
  (  3,  2, 10) (  3,  2, 10) (  3,  2, 10) (  3,  2, 10) (  3,  2, 10)
     0.2289E-03    0.2402E-03    0.1667E-03    0.1156E-03    0.8727E-04
  (  3,  2, 10) (  3,  2, 10) (  3,  2, 10) (  3,  2, 10) (  3,  2, 10)
     0.5412E-04    0.5603E-04    0.3926E-04    0.2772E-04    0.2053E-04
  (  3,  2, 10) (  3,  2, 10) (  3,  2, 10) (  3,  2, 10) (  3,  2, 10)
     0.1311E-04    0.1058E-04    0.5710E-05
  (  3,  2, 10) (  3,  2, 10) (  3,  1, 10)


 OUTPUT CONTROL FOR STRESS PERIOD    9   TIME STEP   2
    SAVE HEAD FOR ALL LAYERS

 HEAD WILL BE SAVED ON UNIT   21 AT END OF TIME STEP   2, STRESS PERIOD    9
 
 SOLVING FOR HEAD 
    40 ITERATIONS FOR TIME STEP   3 IN STRESS PERIOD    9

 MAXIMUM HEAD CHANGE FOR EACH ITERATION:

    HEAD CHANGE   HEAD CHANGE   HEAD CHANGE   HEAD CHANGE   HEAD CHANGE
  LAYER,ROW,COL LAYER,ROW,COL LAYER,ROW,COL LAYER,ROW,COL LAYER,ROW,COL
 ----------------------------------------------------------------------
      1.749         2.501         2.557        -1.381        -3.433    
  (  3,  1, 10) (  3,  1,  4) (  3,  1,  1) (  3,  2, 10) (  3,  1,  1)
    -0.1887       -0.4622        -1.247        0.5954        0.1106    
  (  3,  1, 10) (  3,  1,  1) (  3,  1, 10) (  3,  1, 10) (  2, 10, 10)
    -0.6180E-01   -0.1354E-01   -0.7031E-02   -0.4954E-02   -0.1547E-02
  (  2, 10, 10) (  2,  1,  2) (  3,  3,  7) (  3,  3,  6) (  3,  3,  8)
     0.1411E-02    0.2036E-02    0.2324E-02    0.3528E-02    0.3650E-02
  (  3, 10,  1) (  3,  4,  1) (  3,  8,  4) (  3,  1,  8) (  3,  1, 10)
     0.2119E-02    0.2501E-02    0.1664E-02    0.1112E-02    0.8093E-03
  (  3,  1, 10) (  3,  1, 10) (  3,  2,  9) (  3,  1, 10) (  3,  1, 10)
     0.4984E-03    0.5285E-03    0.3717E-03    0.2428E-03    0.1735E-03
  (  3,  1, 10) (  3,  2,  9) (  3,  1, 10) (  3,  1,  9) (  3,  1, 10)
     0.1014E-03    0.1190E-03    0.7949E-04    0.5322E-04    0.3893E-04
  (  3,  1, 10) (  3,  1, 10) (  3,  2,  9) (  3,  1, 10) (  3,  1, 10)
     0.2369E-04    0.2518E-04    0.1785E-04    0.1179E-04    0.7348E-05
  (  3,  1, 10) (  3,  2,  9) (  3,  1, 10) (  3,  2, 10) (  3,  1,  9)


 OUTPUT CONTROL FOR STRESS PERIOD    9   TIME STEP   3
    SAVE HEAD FOR ALL LAYERS

 HEAD WILL BE SAVED ON UNIT   21 AT END OF TIME STEP   3, STRESS PERIOD    9
 
 SOLVING FOR HEAD 
    36 ITERATIONS FOR TIME STEP   4 IN STRESS PERIOD    9

 MAXIMUM HEAD CHANGE FOR EACH ITERATION:

    HEAD CHANGE   HEAD CHANGE   HEAD CHANGE   HEAD CHANGE   HEAD CHANGE
  LAYER,ROW,COL LAYER,ROW,COL LAYER,ROW,COL LAYER,ROW,COL LAYER,ROW,COL
 ----------------------------------------------------------------------
      1.081         2.450         1.901        -1.292        -3.293    
  (  3,  3, 10) (  3,  1, 10) (  3,  2,  1) (  3,  2, 10) (  3,  1,  1)
     0.3794        0.1602       -0.3353E-01   -0.2392E-01   -0.1927E-01
  (  3, 10, 10) (  3,  9,  6) (  3,  3,  7) (  3,  3,  7) (  3,  3,  7)
    -0.8195E-02   -0.1179E-01   -0.6828E-02   -0.3556E-02    0.1792E-02
  (  3,  3,  6) (  3,  3,  7) (  3,  3,  6) (  3,  3,  7) (  3,  8,  5)
     0.2047E-02    0.4145E-02    0.3373E-02    0.2150E-02    0.1532E-02
  (  3,  1,  1) (  3,  1,  1) (  3,  1, 10) (  3,  1, 10) (  3,  1, 10)
     0.8432E-03    0.1050E-02    0.7233E-03    0.4534E-03    0.3217E-03
  (  3,  1,  1) (  3,  1, 10) (  3,  1,  1) (  3,  1, 10) (  3,  1, 10)
     0.1872E-03    0.2100E-03    0.1524E-03    0.9321E-04    0.6689E-04
  (  3,  1, 10) (  3,  1,  1) (  3,  1, 10) (  3,  1, 10) (  3,  1, 10)
     0.3774E-04    0.4565E-04    0.3130E-04    0.2010E-04    0.1393E-04
  (  3,  1,  1) (  3,  1, 10) (  3,  1,  1) (  3,  1, 10) (  3,  1, 10)
     0.8202E-05
  (  3,  1, 10)


 OUTPUT CONTROL FOR STRESS PERIOD    9   TIME STEP   4
    SAVE HEAD FOR ALL LAYERS

 HEAD WILL BE SAVED ON UNIT   21 AT END OF TIME STEP   4, STRESS PERIOD    9
 
 SOLVING FOR HEAD 
    34 ITERATIONS FOR TIME STEP   5 IN STRESS PERIOD    9

 MAXIMUM HEAD CHANGE FOR EACH ITERATION:

    HEAD CHANGE   HEAD CHANGE   HEAD CHANGE   HEAD CHANGE   HEAD CHANGE
  LAYER,ROW,COL LAYER,ROW,COL LAYER,ROW,COL LAYER,ROW,COL LAYER,ROW,COL
 ----------------------------------------------------------------------
     0.7762         1.362         1.273        -1.261        -2.867    
  (  3,  1, 10) (  3,  1,  9) (  3,  1,  1) (  3,  1, 10) (  3,  1,  1)
     0.8233        0.4963        0.1406        0.6916E-01   -0.4576E-01
  (  3, 10,  1) (  3,  9,  3) (  2,  1,  7) (  2, 10,  1) (  2, 10, 10)
     0.7796E-01   -0.1399E-01   -0.8760E-02   -0.4628E-02   -0.3207E-02
  (  2,  6,  1) (  3,  3,  7) (  3,  9,  4) (  3,  9,  3) (  3, 10,  3)
    -0.2881E-02   -0.2174E-02   -0.1615E-02   -0.8865E-03   -0.5770E-03
  (  2,  6,  1) (  3,  9,  3) (  3,  9,  2) (  3, 10,  4) (  3, 10,  4)
    -0.2779E-03   -0.3997E-03   -0.3006E-03   -0.1732E-03   -0.1161E-03
  (  3, 10, 10) (  3,  9,  2) (  3,  9,  3) (  3,  3,  6) (  3,  3,  6)
    -0.6271E-04   -0.7752E-04   -0.6301E-04   -0.3988E-04   -0.2636E-04
  (  3,  3,  6) (  3,  3,  6) (  3,  3,  6) (  3,  3,  6) (  3,  3,  6)
    -0.1518E-04   -0.1475E-04   -0.1147E-04   -0.5968E-05
  (  3,  3,  6) (  3,  3,  6) (  3,  3,  6) (  3,  3,  7)


 OUTPUT CONTROL FOR STRESS PERIOD    9   TIME STEP   5
    SAVE HEAD FOR ALL LAYERS

 HEAD WILL BE SAVED ON UNIT   21 AT END OF TIME STEP   5, STRESS PERIOD    9
 
 SOLVING FOR HEAD 
    34 ITERATIONS FOR TIME STEP   6 IN STRESS PERIOD    9

 MAXIMUM HEAD CHANGE FOR EACH ITERATION:

    HEAD CHANGE   HEAD CHANGE   HEAD CHANGE   HEAD CHANGE   HEAD CHANGE
  LAYER,ROW,COL LAYER,ROW,COL LAYER,ROW,COL LAYER,ROW,COL LAYER,ROW,COL
 ----------------------------------------------------------------------
     0.5328        0.7688        0.5797        -1.345        -1.126    
  (  3,  1, 10) (  3,  2,  8) (  3,  1,  1) (  3,  1, 10) (  3,  1,  1)
     0.4692        0.2643        0.6697E-01   -0.2450E-01   -0.2281E-01
  (  3,  1, 10) (  3,  2,  2) (  2,  1,  9) (  3,  2,  3) (  2,  1, 10)
     0.2086E-01   -0.1209E-01   -0.1014E-01   -0.5316E-02   -0.3344E-02
  (  2,  7,  1) (  3,  3,  6) (  3,  3,  6) (  3,  3,  6) (  3,  3,  6)
    -0.2616E-02   -0.2221E-02   -0.1875E-02   -0.9985E-03   -0.6470E-03
  (  2,  7,  1) (  3,  3,  6) (  3,  3,  6) (  3,  3,  6) (  3,  3,  6)
    -0.3921E-03   -0.4265E-03   -0.3572E-03   -0.1985E-03   -0.1312E-03
  (  2,  8,  1) (  3,  3,  6) (  3,  3,  6) (  3,  3,  6) (  3,  3,  6)
    -0.5940E-04   -0.8557E-04   -0.7188E-04   -0.4172E-04   -0.2763E-04
  (  3,  3,  6) (  3,  3,  6) (  3,  3,  6) (  3,  3,  6) (  3,  3,  6)
    -0.1406E-04   -0.1335E-04   -0.1029E-04   -0.3525E-05
  (  3,  3,  6) (  3,  3,  6) (  3,  3,  6) (  3,  3,  6)


 OUTPUT CONTROL FOR STRESS PERIOD    9   TIME STEP   6
    PRINT BUDGET
    PRINT HEAD FOR ALL LAYERS
    SAVE HEAD FOR ALL LAYERS
    SAVE DRAWDOWN FOR ALL LAYERS
1
              HEAD IN LAYER   1 AT END OF TIME STEP   6 IN STRESS PERIOD    9
  ---------------------------------------------------------------------------

           1       2       3       4       5       6       7       8       9      10
 ...................................................................................
   1    21.73   21.39   20.72   20.31   20.10   20.10   20.30   20.72   21.38   21.73
   2    20.70   20.20   19.78   19.48   19.33   19.33   19.48   19.77   20.19   20.69
   3    19.21   18.72   18.35   18.11   17.98   17.98   18.10   18.34   18.71   19.20
   4    17.17   16.74   16.45   16.26   16.16   16.16   16.25   16.44   16.73   17.17
   5    14.29   14.20   14.10   14.02   13.97   13.97   14.01   14.09   14.19   14.28
   6    11.71   11.69   11.65   11.61   11.59   11.59   11.61   11.64   11.68   11.71
   7     9.20    9.18    9.14    9.11    9.09    9.08    9.11    9.14    9.18    9.20
   8     6.75    6.69    6.60    6.50    6.45    6.45    6.50    6.60    6.69    6.75
   9     4.48    4.31    4.02    3.68    3.54    3.54    3.68    4.02    4.31    4.47
  10     2.84    2.42    1.53    0.00    0.00    0.00    0.00    1.53    2.42    2.83
1
              HEAD IN LAYER   2 AT END OF TIME STEP   6 IN STRESS PERIOD    9
  ---------------------------------------------------------------------------

           1       2       3       4       5       6       7       8       9      10
 ...................................................................................
   1     1.15    1.17    1.19    1.18    1.18    1.16    1.14    1.11    1.08    1.03
   2     0.99    2.41    2.20    1.73    1.25    0.89    0.93    1.26    1.53    0.81
   3     0.78    1.75    1.34    0.55   -0.60   -2.15   -1.75   -0.43    0.45    0.56
   4     0.52    1.23    0.90    0.32   -0.42   -1.26   -1.10   -0.39    0.18    0.29
   5     0.23    0.72    0.59    0.33    0.05   -0.16   -0.18   -0.05    0.09    0.02
   6    -0.07    0.21    0.16    0.05   -0.06   -0.14   -0.17   -0.15   -0.14   -0.26
   7    -0.39   -0.41   -0.47   -0.53   -0.58   -0.62   -0.63   -0.63   -0.60   -0.54
   8    -0.71   -1.17   -1.29   -1.36   -1.41   -1.43   -1.42   -1.38   -1.27   -0.82
   9    -1.01   -1.97   -2.25   -2.42   -2.50   -2.51   -2.45   -2.29   -2.03   -1.09
  10    -1.29   -1.35   -1.40   -1.44   -1.46   -1.46   -1.45   -1.42   -1.38   -1.33
1
              HEAD IN LAYER   3 AT END OF TIME STEP   6 IN STRESS PERIOD    9
  ---------------------------------------------------------------------------

           1       2       3       4       5       6       7       8       9      10
 ...................................................................................
   1   -14.42  -14.58  -14.88  -15.27  -15.68  -16.01  -16.15  -16.13  -16.05  -15.99
   2   -14.58  -14.82  -15.31  -16.02  -16.86  -17.60  -17.66  -17.25  -16.84  -16.61
   3   -14.54  -14.91  -15.71  -17.08  -19.27  -22.85  -21.98  -19.28  -17.81  -17.16
   4   -13.76  -14.06  -14.69  -15.68  -17.08  -18.92  -18.64  -17.29  -16.41  -15.98
   5   -12.48  -12.64  -12.96  -13.41  -13.92  -14.36  -14.43  -14.24  -14.02  -13.89
   6   -11.14  -11.22  -11.37  -11.56  -11.76  -11.92  -11.99  -12.00  -11.96  -11.94
   7   -10.02  -10.05  -10.12  -10.20  -10.29  -10.36  -10.41  -10.44  -10.45  -10.45
   8    -9.19   -9.20   -9.23   -9.27   -9.31   -9.35   -9.38   -9.40   -9.41   -9.42
   9    -8.65   -8.66   -8.67   -8.70   -8.72   -8.74   -8.76   -8.77   -8.78   -8.78
  10    -8.38   -8.39   -8.40   -8.41   -8.43   -8.44   -8.45   -8.46   -8.47   -8.47

 HEAD WILL BE SAVED ON UNIT   21 AT END OF TIME STEP   6, STRESS PERIOD    9

 DRAWDOWN WILL BE SAVED ON UNIT   22 AT END OF TIME STEP   6, STRESS PERIOD    9
1
  VOLUMETRIC BUDGET FOR ENTIRE MODEL AT END OF TIME STEP  6 IN STRESS PERIOD   9
  ------------------------------------------------------------------------------

     CUMULATIVE VOLUMES      L**3       RATES FOR THIS TIME STEP      L**3/T
     ------------------                 ------------------------

           IN:                                      IN:
           ---                                      ---
             STORAGE =    15470466.0000               STORAGE =        4608.2036
       CONSTANT HEAD =       36261.7422         CONSTANT HEAD =          34.8199
               WELLS =    87702016.0000                 WELLS =       30000.0000
    INST. IB STORAGE =    23352066.0000      INST. IB STORAGE =        5728.1777
    DELAY IB STORAGE =    43675108.0000      DELAY IB STORAGE =       16692.7129

            TOTAL IN =   170235920.0000              TOTAL IN =       57063.9141

          OUT:                                     OUT:
          ----                                     ----
             STORAGE =           0.0000               STORAGE =           0.0000
       CONSTANT HEAD =    82563968.0000         CONSTANT HEAD =       27063.9707
               WELLS =    87672016.0000                 WELLS =       30000.0000
    INST. IB STORAGE =           0.0000      INST. IB STORAGE =           0.0000
    DELAY IB STORAGE =           0.0000      DELAY IB STORAGE =           0.0000

           TOTAL OUT =   170235984.0000             TOTAL OUT =       57063.9688

            IN - OUT =         -64.0000              IN - OUT =      -5.4688E-02

 PERCENT DISCREPANCY =           0.00     PERCENT DISCREPANCY =           0.00






          TIME SUMMARY AT END OF TIME STEP   6 IN STRESS PERIOD    9
                    SECONDS     MINUTES      HOURS       DAYS        YEARS
                    -----------------------------------------------------------
   TIME STEP LENGTH 9.18681E+06 1.53113E+05  2551.9      106.33     0.29111    
 STRESS PERIOD TIME 3.15619E+07 5.26032E+05  8767.2      365.30      1.0001    
         TOTAL TIME 2.52582E+08 4.20970E+06  70162.      2923.4      8.0038    
1

                               VOLUMETRIC BUDGET FOR SYSTEMS OF DELAY INTERBEDS
                                          AT END OF TIME STEP  6 IN STRESS PERIOD  9

          |   C U M U L A T I V E   V O L U M E S   L**3           | R A T E S   F O R  T H I S  T I M E  S T E P   L**3/T  |
   SYSTEM |    CHANGE IN     BOUNDARY                    PERCENT   |    CHANGE IN     BOUNDARY                    PERCENT   |
   NUMBER |     STORAGE        FLOW           SUM      DISCREPANCY |     STORAGE        FLOW           SUM      DISCREPANCY |
  --------|--------------------------------------------------------|--------------------------------------------------------|
      1     37283.        -37283.       -0.39062E-02   -0.10477E-04     12.077        -12.077       -0.95367E-06   -0.78968E-05
      2    0.43638E+08   -0.43638E+08    -8.0000       -0.18333E-04     16681.        -16681.         0.0000         0.0000    
  --------|--------------------------------------------------------|--------------------------------------------------------|
 TOTALS:    0.43675E+08   -0.43675E+08    -8.0000       -0.18317E-04     16693.        -16693.         0.0000         0.0000    
1
                            STRESS PERIOD NO.   10, LENGTH =   365.3000    
                            -----------------------------------------------

                              NUMBER OF TIME STEPS =     6

                               MULTIPLIER FOR DELT =     1.300

                            INITIAL TIME STEP SIZE =   28.63744    

 REUSING NON-PARAMETER WELLS FROM LAST STRESS PERIOD

     14 WELLS
 
 SOLVING FOR HEAD 

    44 ITERATIONS FOR TIME STEP   1 IN STRESS PERIOD   10

 MAXIMUM HEAD CHANGE FOR EACH ITERATION:

    HEAD CHANGE   HEAD CHANGE   HEAD CHANGE   HEAD CHANGE   HEAD CHANGE
  LAYER,ROW,COL LAYER,ROW,COL LAYER,ROW,COL LAYER,ROW,COL LAYER,ROW,COL
 ----------------------------------------------------------------------
      1.953         4.214         3.067        -1.727        -3.418    
  (  3,  1, 10) (  3,  1,  4) (  3,  2,  4) (  3,  2, 10) (  3,  1,  1)
    -0.3255       -0.7823        -1.797        -1.132        0.8189    
  (  3,  1, 10) (  3,  1,  1) (  3,  1, 10) (  3,  2,  1) (  3,  1,  1)
    -0.8585E-01   -0.1051E-01   -0.7246E-02   -0.5839E-02   -0.2458E-02
  (  2,  7,  1) (  3,  3,  6) (  3,  3,  7) (  3,  3,  6) (  3,  3,  6)
    -0.2561E-02   -0.1380E-02   -0.1363E-02    0.1957E-02    0.6822E-03
  (  3,  3,  6) (  3,  3,  7) (  3,  3,  7) (  3,  1,  4) (  3,  7,  7)
     0.1829E-02    0.1586E-02    0.1613E-02    0.2384E-02    0.1727E-02
  (  3,  1,  2) (  3,  2,  3) (  3,  8, 10) (  3,  3,  8) (  3,  1, 10)
     0.1200E-02    0.1148E-02    0.7925E-03    0.5559E-03    0.4171E-03
  (  3,  1, 10) (  3,  2,  3) (  3,  2,  3) (  3,  1, 10) (  3,  1, 10)
     0.2715E-03    0.2810E-03    0.1919E-03    0.1353E-03    0.1008E-03
  (  3,  1, 10) (  3,  2,  3) (  3,  2,  3) (  3,  2,  3) (  3,  2,  3)
     0.6972E-04    0.6786E-04    0.4679E-04    0.3278E-04    0.2517E-04
  (  3,  1, 10) (  3,  2,  3) (  3,  2,  3) (  3,  2,  3) (  3,  2,  3)
     0.1586E-04    0.1632E-04    0.1172E-04    0.7962E-05
  (  3,  1,  9) (  3,  2,  3) (  3,  2,  3) (  3,  1, 10)


 OUTPUT CONTROL FOR STRESS PERIOD   10   TIME STEP   1
    SAVE HEAD FOR ALL LAYERS

 HEAD WILL BE SAVED ON UNIT   21 AT END OF TIME STEP   1, STRESS PERIOD   10
 
 SOLVING FOR HEAD 
    42 ITERATIONS FOR TIME STEP   2 IN STRESS PERIOD   10

 MAXIMUM HEAD CHANGE FOR EACH ITERATION:

    HEAD CHANGE   HEAD CHANGE   HEAD CHANGE   HEAD CHANGE   HEAD CHANGE
  LAYER,ROW,COL LAYER,ROW,COL LAYER,ROW,COL LAYER,ROW,COL LAYER,ROW,COL
 ----------------------------------------------------------------------
      1.956         3.361         2.641        -1.410        -3.376    
  (  3,  1, 10) (  3,  2, 10) (  3,  2,  1) (  3,  2, 10) (  3,  1,  1)
    -0.2701       -0.6546        -1.624        0.3308        0.3760E-01
  (  3,  1, 10) (  3,  1,  1) (  3,  1, 10) (  3, 10,  1) (  2, 10,  1)
    -0.7300E-01   -0.7800E-02   -0.6266E-02   -0.1985E-02   -0.3402E-02
  (  2,  8,  1) (  2,  1,  2) (  3,  3,  7) (  3,  4,  6) (  3,  3,  6)
     0.1442E-02    0.1365E-02    0.3069E-02    0.1869E-02    0.3370E-02
  (  3,  7, 10) (  3, 10, 10) (  3,  1, 10) (  3, 10, 10) (  3,  1, 10)
     0.1603E-02    0.3294E-02    0.2667E-02    0.1871E-02    0.1364E-02
  (  3,  1,  4) (  3,  2,  2) (  3,  1,  4) (  3,  1,  4) (  3,  1,  4)
     0.8587E-03    0.8789E-03    0.6315E-03    0.4303E-03    0.3212E-03
  (  3,  1,  4) (  3,  2,  8) (  3,  1,  4) (  3,  1,  4) (  3,  1,  4)
     0.1976E-03    0.2081E-03    0.1448E-03    0.1020E-03    0.7417E-04
  (  3,  1,  4) (  3,  1,  4) (  3,  1,  4) (  3,  1,  4) (  3,  1,  4)
     0.4775E-04    0.4750E-04    0.3448E-04    0.2394E-04    0.1751E-04
  (  3,  1,  4) (  3,  1,  4) (  3,  1,  4) (  3,  1,  4) (  3,  1,  4)
     0.1115E-04    0.6443E-05
  (  3,  1,  4) (  3,  1,  4)


 OUTPUT CONTROL FOR STRESS PERIOD   10   TIME STEP   2
    SAVE HEAD FOR ALL LAYERS

 HEAD WILL BE SAVED ON UNIT   21 AT END OF TIME STEP   2, STRESS PERIOD   10
 
 SOLVING FOR HEAD 
    40 ITERATIONS FOR TIME STEP   3 IN STRESS PERIOD   10

 MAXIMUM HEAD CHANGE FOR EACH ITERATION:

    HEAD CHANGE   HEAD CHANGE   HEAD CHANGE   HEAD CHANGE   HEAD CHANGE
  LAYER,ROW,COL LAYER,ROW,COL LAYER,ROW,COL LAYER,ROW,COL LAYER,ROW,COL
 ----------------------------------------------------------------------
      1.275         3.291         2.608        -1.274        -3.437    
  (  3,  3, 10) (  3,  1, 10) (  3,  1,  1) (  3,  1, 10) (  3,  1,  1)
     0.2072       -0.4701        -1.250        0.5635        0.1173    
  (  2,  5,  1) (  3,  1,  1) (  3,  1, 10) (  3,  1, 10) (  2, 10, 10)
    -0.6310E-01   -0.1181E-01   -0.7212E-02   -0.3391E-02   -0.2095E-02
  (  2, 10, 10) (  2,  1,  2) (  3,  3,  7) (  3,  3,  6) (  3,  3,  7)
     0.1269E-02    0.2008E-02    0.2376E-02    0.3274E-02    0.3761E-02
  (  3, 10,  1) (  3,  6,  1) (  3,  1,  2) (  3,  1,  1) (  3,  1,  2)
     0.2250E-02    0.2657E-02    0.1819E-02    0.1149E-02    0.8370E-03
  (  3,  1,  1) (  3,  2,  4) (  3,  2,  4) (  3,  2,  4) (  3,  1,  3)
     0.4863E-03    0.5726E-03    0.3977E-03    0.2548E-03    0.1820E-03
  (  3,  1, 10) (  3,  2,  4) (  3,  2,  4) (  3,  2,  4) (  3,  2,  4)
     0.1070E-03    0.1277E-03    0.8812E-04    0.5630E-04    0.4093E-04
  (  3,  1,  1) (  3,  2,  4) (  3,  2,  4) (  3,  2,  4) (  3,  2,  4)
     0.2229E-04    0.2797E-04    0.1936E-04    0.1289E-04    0.8352E-05
  (  3,  1, 10) (  3,  2,  4) (  3,  2,  4) (  3,  2,  4) (  3,  2,  4)


 OUTPUT CONTROL FOR STRESS PERIOD   10   TIME STEP   3
    SAVE HEAD FOR ALL LAYERS

 HEAD WILL BE SAVED ON UNIT   21 AT END OF TIME STEP   3, STRESS PERIOD   10
 
 SOLVING FOR HEAD 
    36 ITERATIONS FOR TIME STEP   4 IN STRESS PERIOD   10

 MAXIMUM HEAD CHANGE FOR EACH ITERATION:

    HEAD CHANGE   HEAD CHANGE   HEAD CHANGE   HEAD CHANGE   HEAD CHANGE
  LAYER,ROW,COL LAYER,ROW,COL LAYER,ROW,COL LAYER,ROW,COL LAYER,ROW,COL
 ----------------------------------------------------------------------
     0.9522         2.109         1.721        -1.085        -3.201    
  (  3,  1,  1) (  3,  1,  9) (  3,  2,  4) (  3,  1, 10) (  3,  1,  1)
     0.2878       -0.1995        0.6807E-01   -0.2193E-01   -0.1810E-01
  (  3, 10, 10) (  3,  2, 10) (  3,  1, 10) (  3,  2,  6) (  3,  3,  7)
    -0.8380E-02   -0.1098E-01   -0.5176E-02   -0.4120E-02    0.2369E-02
  (  2,  9,  1) (  3,  3,  7) (  3,  4,  7) (  3,  3,  7) (  3, 10,  3)
     0.1812E-02    0.4072E-02    0.3383E-02    0.2187E-02    0.1575E-02
  (  3,  6,  1) (  3,  1,  1) (  3,  1,  3) (  3,  1,  1) (  3,  1,  1)
     0.8693E-03    0.1030E-02    0.7523E-03    0.4551E-03    0.3152E-03
  (  3,  1,  1) (  3,  2,  2) (  3,  1,  1) (  3,  1,  3) (  3,  1,  1)
     0.1754E-03    0.2191E-03    0.1515E-03    0.9307E-04    0.6777E-04
  (  3,  1,  1) (  3,  1,  1) (  3,  1,  4) (  3,  1,  1) (  3,  1,  1)
     0.3787E-04    0.4347E-04    0.3210E-04    0.2008E-04    0.1404E-04
  (  3,  1,  1) (  3,  1,  3) (  3,  1,  1) (  3,  1,  3) (  3,  1,  1)
     0.7572E-05
  (  3,  1,  1)


 OUTPUT CONTROL FOR STRESS PERIOD   10   TIME STEP   4
    SAVE HEAD FOR ALL LAYERS

 HEAD WILL BE SAVED ON UNIT   21 AT END OF TIME STEP   4, STRESS PERIOD   10
 
 SOLVING FOR HEAD 
    33 ITERATIONS FOR TIME STEP   5 IN STRESS PERIOD   10

 MAXIMUM HEAD CHANGE FOR EACH ITERATION:

    HEAD CHANGE   HEAD CHANGE   HEAD CHANGE   HEAD CHANGE   HEAD CHANGE
  LAYER,ROW,COL LAYER,ROW,COL LAYER,ROW,COL LAYER,ROW,COL LAYER,ROW,COL
 ----------------------------------------------------------------------
     0.7195         1.477         1.256        -1.237        -2.878    
  (  3,  1,  8) (  3,  1, 10) (  3,  1,  1) (  3,  2, 10) (  3,  1,  1)
     0.7915        0.4759        0.1361        0.6932E-01   -0.4712E-01
  (  3, 10,  1) (  3,  9,  3) (  2,  1,  8) (  2, 10,  1) (  2, 10, 10)
     0.7516E-01   -0.1302E-01   -0.7982E-02   -0.4280E-02   -0.2902E-02
  (  2,  6,  1) (  3,  3,  7) (  3,  8,  4) (  3,  9,  1) (  3,  9,  2)
    -0.2475E-02   -0.1998E-02   -0.1498E-02   -0.8063E-03   -0.5280E-03
  (  2,  6,  1) (  3,  9,  3) (  3,  9,  1) (  3,  9,  3) (  3,  9,  2)
    -0.2434E-03   -0.3717E-03   -0.2780E-03   -0.1500E-03   -0.1058E-03
  (  3, 10,  5) (  3,  9,  2) (  3,  9,  3) (  3,  8,  3) (  3,  3,  6)
    -0.5609E-04   -0.7030E-04   -0.5679E-04   -0.3404E-04    0.2541E-04
  (  3,  3,  6) (  3,  9,  3) (  3,  3,  6) (  3,  3,  6) (  3,  1,  9)
     0.1906E-04    0.1413E-04    0.9114E-05
  (  3,  1,  9) (  3,  1,  9) (  3,  1,  9)


 OUTPUT CONTROL FOR STRESS PERIOD   10   TIME STEP   5
    SAVE HEAD FOR ALL LAYERS

 HEAD WILL BE SAVED ON UNIT   21 AT END OF TIME STEP   5, STRESS PERIOD   10
 
 SOLVING FOR HEAD 
    33 ITERATIONS FOR TIME STEP   6 IN STRESS PERIOD   10

 MAXIMUM HEAD CHANGE FOR EACH ITERATION:

    HEAD CHANGE   HEAD CHANGE   HEAD CHANGE   HEAD CHANGE   HEAD CHANGE
  LAYER,ROW,COL LAYER,ROW,COL LAYER,ROW,COL LAYER,ROW,COL LAYER,ROW,COL
 ----------------------------------------------------------------------
     0.3770        0.8871        0.5042        -1.281        -1.116    
  (  3,  1,  1) (  3,  1, 10) (  3,  1,  1) (  3,  1, 10) (  3,  1,  1)
     0.4429        0.2458        0.6207E-01   -0.2228E-01   -0.2125E-01
  (  3,  1, 10) (  3,  2,  2) (  2,  1,  9) (  3,  2,  3) (  2,  1, 10)
     0.1922E-01   -0.1098E-01   -0.9138E-02   -0.4809E-02   -0.2987E-02
  (  2,  7,  1) (  3,  2,  7) (  3,  3,  6) (  3,  3,  6) (  3,  3,  6)
    -0.2415E-02   -0.1997E-02   -0.1692E-02   -0.8873E-03   -0.5807E-03
  (  2,  7,  1) (  3,  3,  6) (  3,  3,  6) (  3,  3,  6) (  3,  3,  6)
    -0.3660E-03   -0.3805E-03   -0.3169E-03   -0.1768E-03   -0.1140E-03
  (  2,  8,  1) (  3,  3,  6) (  3,  3,  6) (  3,  3,  6) (  3,  3,  6)
    -0.5203E-04   -0.7514E-04   -0.6380E-04   -0.3646E-04   -0.2399E-04
  (  3,  3,  6) (  3,  3,  6) (  3,  3,  6) (  3,  3,  6) (  3,  3,  6)
    -0.1248E-04   -0.1018E-04   -0.7038E-05
  (  3,  3,  6) (  3,  3,  6) (  3,  3,  6)


 OUTPUT CONTROL FOR STRESS PERIOD   10   TIME STEP   6
    PRINT BUDGET
    PRINT HEAD FOR ALL LAYERS
    SAVE HEAD FOR ALL LAYERS
    SAVE DRAWDOWN FOR ALL LAYERS
1
              HEAD IN LAYER   1 AT END OF TIME STEP   6 IN STRESS PERIOD   10
  ---------------------------------------------------------------------------

           1       2       3       4       5       6       7       8       9      10
 ...................................................................................
   1    21.62   21.27   20.61   20.19   19.98   19.98   20.19   20.60   21.26   21.61
   2    20.59   20.09   19.66   19.37   19.21   19.21   19.36   19.66   20.08   20.58
   3    19.10   18.61   18.24   17.99   17.87   17.86   17.99   18.23   18.60   19.09
   4    17.07   16.64   16.34   16.15   16.05   16.05   16.14   16.33   16.63   17.06
   5    14.19   14.10   14.00   13.92   13.87   13.87   13.92   14.00   14.10   14.18
   6    11.63   11.60   11.56   11.52   11.50   11.50   11.52   11.56   11.59   11.62
   7     9.13    9.11    9.07    9.04    9.01    9.01    9.03    9.07    9.11    9.13
   8     6.69    6.64    6.54    6.45    6.40    6.40    6.45    6.54    6.63    6.69
   9     4.44    4.27    3.98    3.65    3.51    3.51    3.65    3.98    4.27    4.44
  10     2.81    2.40    1.52    0.00    0.00    0.00    0.00    1.52    2.40    2.81
1
              HEAD IN LAYER   2 AT END OF TIME STEP   6 IN STRESS PERIOD   10
  ---------------------------------------------------------------------------

           1       2       3       4       5       6       7       8       9      10
 ...................................................................................
   1     0.78    0.80    0.81    0.81    0.80    0.79    0.76    0.74    0.71    0.66
   2     0.63    2.00    1.77    1.30    0.82    0.45    0.49    0.82    1.11    0.45
   3     0.43    1.35    0.93    0.13   -1.02   -2.57   -2.18   -0.85    0.04    0.21
   4     0.18    0.86    0.51   -0.07   -0.81   -1.65   -1.50   -0.79   -0.21   -0.05
   5    -0.09    0.38    0.24   -0.02   -0.30   -0.52   -0.54   -0.40   -0.26   -0.31
   6    -0.38   -0.10   -0.15   -0.26   -0.37   -0.45   -0.48   -0.47   -0.45   -0.57
   7    -0.69   -0.68   -0.73   -0.79   -0.85   -0.89   -0.90   -0.90   -0.88   -0.84
   8    -0.99   -1.41   -1.53   -1.60   -1.64   -1.66   -1.65   -1.61   -1.52   -1.11
   9    -1.29   -2.19   -2.45   -2.62   -2.70   -2.71   -2.65   -2.50   -2.25   -1.36
  10    -1.55   -1.61   -1.66   -1.70   -1.72   -1.72   -1.71   -1.68   -1.64   -1.59
1
              HEAD IN LAYER   3 AT END OF TIME STEP   6 IN STRESS PERIOD   10
  ---------------------------------------------------------------------------

           1       2       3       4       5       6       7       8       9      10
 ...................................................................................
   1   -15.17  -15.33  -15.63  -16.02  -16.44  -16.77  -16.92  -16.90  -16.82  -16.76
   2   -15.31  -15.56  -16.05  -16.76  -17.60  -18.36  -18.42  -18.01  -17.60  -17.37
   3   -15.24  -15.61  -16.42  -17.79  -20.00  -23.58  -22.72  -20.01  -18.54  -17.89
   4   -14.41  -14.72  -15.35  -16.34  -17.75  -19.60  -19.32  -17.97  -17.09  -16.66
   5   -13.07  -13.23  -13.56  -14.01  -14.53  -14.97  -15.04  -14.85  -14.63  -14.50
   6   -11.67  -11.75  -11.89  -12.09  -12.29  -12.45  -12.53  -12.53  -12.50  -12.48
   7   -10.48  -10.52  -10.58  -10.67  -10.75  -10.83  -10.88  -10.91  -10.92  -10.92
   8    -9.59   -9.61   -9.64   -9.68   -9.73   -9.76   -9.80   -9.82   -9.83   -9.83
   9    -9.02   -9.03   -9.05   -9.07   -9.09   -9.11   -9.13   -9.14   -9.15   -9.15
  10    -8.73   -8.74   -8.75   -8.76   -8.78   -8.79   -8.81   -8.82   -8.82   -8.83

 HEAD WILL BE SAVED ON UNIT   21 AT END OF TIME STEP   6, STRESS PERIOD   10

 DRAWDOWN WILL BE SAVED ON UNIT   22 AT END OF TIME STEP   6, STRESS PERIOD   10
1
  VOLUMETRIC BUDGET FOR ENTIRE MODEL AT END OF TIME STEP  6 IN STRESS PERIOD  10
  ------------------------------------------------------------------------------

     CUMULATIVE VOLUMES      L**3       RATES FOR THIS TIME STEP      L**3/T
     ------------------                 ------------------------

           IN:                                      IN:
           ---                                      ---
             STORAGE =    17129470.0000               STORAGE =        4497.7861
       CONSTANT HEAD =       50347.0156         CONSTANT HEAD =          41.0586
               WELLS =    98661024.0000                 WELLS =       30000.0000
    INST. IB STORAGE =    25423232.0000      INST. IB STORAGE =        5631.4526
    DELAY IB STORAGE =    49762728.0000      DELAY IB STORAGE =       16645.2129

            TOTAL IN =   191026800.0000              TOTAL IN =       56815.5117

          OUT:                                     OUT:
          ----                                     ----
             STORAGE =           0.0000               STORAGE =           0.0000
       CONSTANT HEAD =    92395840.0000         CONSTANT HEAD =       26815.5469
               WELLS =    98631024.0000                 WELLS =       30000.0000
    INST. IB STORAGE =           0.0000      INST. IB STORAGE =           0.0000
    DELAY IB STORAGE =           0.0000      DELAY IB STORAGE =           0.0000

           TOTAL OUT =   191026864.0000             TOTAL OUT =       56815.5469

            IN - OUT =         -64.0000              IN - OUT =      -3.5156E-02

 PERCENT DISCREPANCY =           0.00     PERCENT DISCREPANCY =           0.00






          TIME SUMMARY AT END OF TIME STEP   6 IN STRESS PERIOD   10
                    SECONDS     MINUTES      HOURS       DAYS        YEARS
                    -----------------------------------------------------------
   TIME STEP LENGTH 9.18681E+06 1.53113E+05  2551.9      106.33     0.29111    
 STRESS PERIOD TIME 3.15619E+07 5.26032E+05  8767.2      365.30      1.0001    
         TOTAL TIME 2.84144E+08 4.73573E+06  78929.      3288.7      9.0040    
1

                               VOLUMETRIC BUDGET FOR SYSTEMS OF DELAY INTERBEDS
                                          AT END OF TIME STEP  6 IN STRESS PERIOD 10

          |   C U M U L A T I V E   V O L U M E S   L**3           | R A T E S   F O R  T H I S  T I M E  S T E P   L**3/T  |
   SYSTEM |    CHANGE IN     BOUNDARY                    PERCENT   |    CHANGE IN     BOUNDARY                    PERCENT   |
   NUMBER |     STORAGE        FLOW           SUM      DISCREPANCY |     STORAGE        FLOW           SUM      DISCREPANCY |
  --------|--------------------------------------------------------|--------------------------------------------------------|
      1     41673.        -41673.       -0.39062E-02   -0.93735E-05     11.715        -11.715       -0.19073E-05   -0.16282E-04
      2    0.49721E+08   -0.49721E+08    -8.0000       -0.16090E-04     16633.        -16634.       -0.58594E-02   -0.35226E-04
  --------|--------------------------------------------------------|--------------------------------------------------------|
 TOTALS:    0.49763E+08   -0.49763E+08    -8.0000       -0.16076E-04     16645.        -16645.       -0.58594E-02   -0.35202E-04
1
                            STRESS PERIOD NO.   11, LENGTH =   365.3000    
                            -----------------------------------------------

                              NUMBER OF TIME STEPS =     6

                               MULTIPLIER FOR DELT =     1.300

                            INITIAL TIME STEP SIZE =   28.63744    

 REUSING NON-PARAMETER WELLS FROM LAST STRESS PERIOD

     14 WELLS
 
 SOLVING FOR HEAD 

    44 ITERATIONS FOR TIME STEP   1 IN STRESS PERIOD   11

 MAXIMUM HEAD CHANGE FOR EACH ITERATION:

    HEAD CHANGE   HEAD CHANGE   HEAD CHANGE   HEAD CHANGE   HEAD CHANGE
  LAYER,ROW,COL LAYER,ROW,COL LAYER,ROW,COL LAYER,ROW,COL LAYER,ROW,COL
 ----------------------------------------------------------------------
      1.571         4.426         2.903        -1.790        -3.229    
  (  3,  1, 10) (  3,  1,  9) (  3,  3,  2) (  3,  1, 10) (  3,  1,  1)
    -0.3250       -0.7895        -1.763        -1.105        0.7952    
  (  3,  1, 10) (  3,  1,  1) (  3,  1, 10) (  3,  2,  1) (  3,  1,  1)
    -0.8472E-01   -0.9135E-02   -0.5916E-02   -0.5436E-02   -0.1919E-02
  (  2,  7,  1) (  3,  3,  6) (  3,  3,  6) (  3,  3,  6) (  3,  3,  7)
    -0.2495E-02    0.9243E-03   -0.1302E-02    0.1570E-02    0.7635E-03
  (  3,  3,  6) (  3,  9,  2) (  3,  3,  6) (  3,  7,  1) (  3,  1,  5)
     0.1500E-02    0.1498E-02    0.1651E-02    0.2362E-02    0.1862E-02
  (  3,  7,  1) (  3,  1,  5) (  3,  7,  1) (  3,  1, 10) (  3,  1,  5)
     0.1261E-02    0.1189E-02    0.8664E-03    0.6116E-03    0.4654E-03
  (  3,  1,  5) (  3,  1,  5) (  3,  1,  5) (  3,  1,  5) (  3,  1,  5)
     0.3049E-03    0.2957E-03    0.2083E-03    0.1523E-03    0.1124E-03
  (  3,  1,  5) (  3,  1,  5) (  3,  1,  5) (  3,  1,  5) (  3,  1,  5)
     0.7666E-04    0.7143E-04    0.5260E-04    0.3678E-04    0.2800E-04
  (  3,  1,  5) (  3,  1,  5) (  3,  1,  5) (  3,  1,  5) (  3,  1,  5)
     0.1865E-04    0.1804E-04    0.1247E-04    0.9086E-05
  (  3,  1,  5) (  3,  1,  5) (  3,  1,  5) (  3,  1,  5)


 OUTPUT CONTROL FOR STRESS PERIOD   11   TIME STEP   1
    SAVE HEAD FOR ALL LAYERS

 HEAD WILL BE SAVED ON UNIT   21 AT END OF TIME STEP   1, STRESS PERIOD   11
 
 SOLVING FOR HEAD 
    42 ITERATIONS FOR TIME STEP   2 IN STRESS PERIOD   11

 MAXIMUM HEAD CHANGE FOR EACH ITERATION:

    HEAD CHANGE   HEAD CHANGE   HEAD CHANGE   HEAD CHANGE   HEAD CHANGE
  LAYER,ROW,COL LAYER,ROW,COL LAYER,ROW,COL LAYER,ROW,COL LAYER,ROW,COL
 ----------------------------------------------------------------------
      2.145         3.981         2.592        -1.653        -3.279    
  (  3,  1,  1) (  3,  1, 10) (  3,  1,  1) (  3,  1,  8) (  3,  1,  1)
    -0.2539       -0.6205        -1.561        0.3207        0.3576E-01
  (  3,  1, 10) (  3,  1,  1) (  3,  1, 10) (  3, 10,  1) (  2, 10,  1)
    -0.7044E-01   -0.9082E-02   -0.5142E-02   -0.1798E-02   -0.2856E-02
  (  2,  7,  1) (  2,  1,  2) (  3,  3,  7) (  3,  3,  8) (  3,  3,  6)
     0.1541E-02    0.1288E-02    0.2730E-02    0.1615E-02    0.3105E-02
  (  3, 10,  1) (  3, 10, 10) (  3,  1, 10) (  3, 10,  6) (  3,  1, 10)
     0.1710E-02    0.2955E-02    0.2702E-02    0.1954E-02    0.1419E-02
  (  3,  1,  3) (  3,  1, 10) (  3,  1,  3) (  3,  1,  3) (  3,  1,  3)
     0.8970E-03    0.9466E-03    0.6575E-03    0.4466E-03    0.3373E-03
  (  3,  1,  3) (  3,  2,  3) (  3,  1,  3) (  3,  1,  3) (  3,  1,  3)
     0.2030E-03    0.2220E-03    0.1509E-03    0.1068E-03    0.7648E-04
  (  3,  1,  3) (  3,  2,  3) (  3,  1,  3) (  3,  1,  3) (  3,  1,  3)
     0.4979E-04    0.5101E-04    0.3575E-04    0.2418E-04    0.1863E-04
  (  3,  1,  3) (  3,  2,  3) (  3,  1,  3) (  3,  1,  3) (  3,  1,  3)
     0.1119E-04    0.7759E-05
  (  3,  1,  3) (  3,  2,  1)


 OUTPUT CONTROL FOR STRESS PERIOD   11   TIME STEP   2
    SAVE HEAD FOR ALL LAYERS

 HEAD WILL BE SAVED ON UNIT   21 AT END OF TIME STEP   2, STRESS PERIOD   11
 
 SOLVING FOR HEAD 
    40 ITERATIONS FOR TIME STEP   3 IN STRESS PERIOD   11

 MAXIMUM HEAD CHANGE FOR EACH ITERATION:

    HEAD CHANGE   HEAD CHANGE   HEAD CHANGE   HEAD CHANGE   HEAD CHANGE
  LAYER,ROW,COL LAYER,ROW,COL LAYER,ROW,COL LAYER,ROW,COL LAYER,ROW,COL
 ----------------------------------------------------------------------
      1.579         2.614         2.715        -1.194        -3.405    
  (  3,  1, 10) (  3,  2, 10) (  3,  1,  1) (  3,  2, 10) (  3,  1,  1)
    -0.1815       -0.4687        -1.240        0.5409        0.4927E-01
  (  3,  1, 10) (  3,  1,  1) (  3,  1, 10) (  3, 10,  1) (  2, 10, 10)
    -0.5754E-01   -0.1016E-01   -0.7027E-02   -0.3490E-02   -0.2496E-02
  (  2,  7,  1) (  2,  1,  2) (  3,  3,  6) (  3,  4,  7) (  3,  3,  6)
     0.2292E-02    0.1739E-02    0.2143E-02    0.2790E-02    0.3696E-02
  (  3,  1, 10) (  3,  7, 10) (  3,  1,  1) (  3,  6,  1) (  3,  1,  1)
     0.2179E-02    0.2586E-02    0.1759E-02    0.1120E-02    0.8013E-03
  (  3,  1,  1) (  3,  2,  7) (  3,  2,  7) (  3,  1,  9) (  3,  1,  6)
     0.4927E-03    0.5505E-03    0.3818E-03    0.2427E-03    0.1724E-03
  (  3,  1, 10) (  3,  2,  7) (  3,  2,  7) (  3,  2,  8) (  3,  1,  9)
     0.1014E-03    0.1212E-03    0.8280E-04    0.5232E-04    0.3808E-04
  (  3,  1,  1) (  3,  2,  8) (  3,  2,  7) (  3,  2,  7) (  3,  2,  8)
     0.2267E-04    0.2579E-04    0.1791E-04    0.1167E-04    0.8039E-05
  (  3,  1, 10) (  3,  2,  8) (  3,  2,  8) (  3,  2,  7) (  3,  1,  2)


 OUTPUT CONTROL FOR STRESS PERIOD   11   TIME STEP   3
    SAVE HEAD FOR ALL LAYERS

 HEAD WILL BE SAVED ON UNIT   21 AT END OF TIME STEP   3, STRESS PERIOD   11
 
 SOLVING FOR HEAD 
    36 ITERATIONS FOR TIME STEP   4 IN STRESS PERIOD   11

 MAXIMUM HEAD CHANGE FOR EACH ITERATION:

    HEAD CHANGE   HEAD CHANGE   HEAD CHANGE   HEAD CHANGE   HEAD CHANGE
  LAYER,ROW,COL LAYER,ROW,COL LAYER,ROW,COL LAYER,ROW,COL LAYER,ROW,COL
 ----------------------------------------------------------------------
      1.254         1.911         1.694        -1.085        -3.210    
  (  3,  1,  1) (  3,  1,  8) (  3,  1,  1) (  3,  1,  6) (  3,  1,  1)
     0.2995        0.1227       -0.2662E-01   -0.2004E-01   -0.1681E-01
  (  3, 10, 10) (  3,  9,  5) (  3,  2,  5) (  3,  2, 10) (  3,  3,  7)
    -0.6276E-02   -0.1048E-01   -0.4298E-02   -0.3842E-02    0.2706E-02
  (  3,  1, 10) (  3,  3,  7) (  3,  3,  7) (  3,  3,  7) (  3,  1,  1)
     0.1598E-02    0.4164E-02    0.3461E-02    0.2233E-02    0.1668E-02
  (  3,  7, 10) (  3,  1, 10) (  3,  1,  3) (  3,  1,  1) (  3,  1,  1)
     0.8943E-03    0.1050E-02    0.7691E-03    0.4839E-03    0.3246E-03
  (  3,  1,  1) (  3,  1,  2) (  3,  1,  1) (  3,  1,  1) (  3,  1, 10)
     0.1914E-03    0.2275E-03    0.1570E-03    0.9568E-04    0.7377E-04
  (  3,  1,  1) (  3,  1,  1) (  3,  1,  3) (  3,  1,  9) (  3,  1,  1)
     0.3903E-04    0.4583E-04    0.3232E-04    0.2180E-04    0.1497E-04
  (  3,  1,  1) (  3,  1,  2) (  3,  1,  1) (  3,  1,  1) (  3,  1,  8)
     0.8339E-05
  (  3,  1,  3)


 OUTPUT CONTROL FOR STRESS PERIOD   11   TIME STEP   4
    SAVE HEAD FOR ALL LAYERS

 HEAD WILL BE SAVED ON UNIT   21 AT END OF TIME STEP   4, STRESS PERIOD   11
 
 SOLVING FOR HEAD 
    33 ITERATIONS FOR TIME STEP   5 IN STRESS PERIOD   11

 MAXIMUM HEAD CHANGE FOR EACH ITERATION:

    HEAD CHANGE   HEAD CHANGE   HEAD CHANGE   HEAD CHANGE   HEAD CHANGE
  LAYER,ROW,COL LAYER,ROW,COL LAYER,ROW,COL LAYER,ROW,COL LAYER,ROW,COL
 ----------------------------------------------------------------------
     0.7166         1.351         1.294        -1.164        -2.914    
  (  3,  1, 10) (  3,  1,  9) (  3,  1,  1) (  3,  1, 10) (  3,  1,  1)
     0.8051        0.4877        0.1413        0.7246E-01   -0.4908E-01
  (  3, 10,  1) (  3,  9,  3) (  2,  1,  8) (  2, 10,  1) (  2, 10, 10)
     0.7829E-01    0.1343E-01   -0.8289E-02   -0.4410E-02   -0.2998E-02
  (  2,  6,  1) (  2,  1,  2) (  3,  9,  5) (  3,  9,  4) (  3,  9,  3)
    -0.2605E-02   -0.2066E-02   -0.1544E-02   -0.8487E-03   -0.5495E-03
  (  2,  5,  1) (  3,  9,  3) (  3,  9,  2) (  3,  9,  5) (  3,  9,  3)
    -0.2490E-03   -0.3853E-03   -0.2941E-03   -0.1561E-03   -0.1087E-03
  (  3, 10, 10) (  3,  9,  2) (  3,  9,  4) (  3,  9,  3) (  3,  9,  4)
    -0.4804E-04   -0.7423E-04   -0.5469E-04   -0.3204E-04   -0.2167E-04
  (  3,  3,  6) (  3,  9,  4) (  3,  9,  3) (  3,  3,  6) (  3,  3,  6)
    -0.1162E-04   -0.1048E-04   -0.4790E-05
  (  3,  3,  6) (  3,  3,  6) (  3,  3,  6)


 OUTPUT CONTROL FOR STRESS PERIOD   11   TIME STEP   5
    SAVE HEAD FOR ALL LAYERS

 HEAD WILL BE SAVED ON UNIT   21 AT END OF TIME STEP   5, STRESS PERIOD   11
 
 SOLVING FOR HEAD 
    33 ITERATIONS FOR TIME STEP   6 IN STRESS PERIOD   11

 MAXIMUM HEAD CHANGE FOR EACH ITERATION:

    HEAD CHANGE   HEAD CHANGE   HEAD CHANGE   HEAD CHANGE   HEAD CHANGE
  LAYER,ROW,COL LAYER,ROW,COL LAYER,ROW,COL LAYER,ROW,COL LAYER,ROW,COL
 ----------------------------------------------------------------------
     0.4889        0.8246        0.5758        -1.262        -1.304    
  (  3,  1,  8) (  3,  1, 10) (  3,  2,  1) (  3,  1, 10) (  3,  1,  1)
     0.5428        0.3226        0.8735E-01    0.2830E-01   -0.2704E-01
  (  3,  1, 10) (  3,  2,  2) (  2,  1,  9) (  2, 10,  1) (  2, 10, 10)
     0.2730E-01   -0.1277E-01   -0.1079E-01   -0.5514E-02   -0.3448E-02
  (  2,  7,  1) (  3,  3,  6) (  3,  3,  6) (  3,  3,  6) (  3,  3,  6)
    -0.2745E-02   -0.2281E-02   -0.1929E-02   -0.1008E-02   -0.6357E-03
  (  2,  7,  1) (  3,  3,  6) (  3,  3,  6) (  3,  3,  6) (  3,  3,  6)
    -0.4357E-03   -0.4218E-03   -0.3572E-03   -0.1885E-03   -0.1242E-03
  (  2,  8,  1) (  3,  3,  6) (  3,  3,  6) (  3,  3,  6) (  3,  3,  6)
    -0.5132E-04   -0.8022E-04   -0.6807E-04   -0.3821E-04   -0.2392E-04
  (  3,  3,  6) (  3,  3,  6) (  3,  3,  6) (  3,  3,  6) (  3,  3,  6)
    -0.1175E-04   -0.1061E-04   -0.6602E-05
  (  2,  8,  1) (  3,  3,  6) (  3,  3,  6)


 OUTPUT CONTROL FOR STRESS PERIOD   11   TIME STEP   6
    PRINT BUDGET
    PRINT HEAD FOR ALL LAYERS
    SAVE HEAD FOR ALL LAYERS
    SAVE DRAWDOWN FOR ALL LAYERS
1
              HEAD IN LAYER   1 AT END OF TIME STEP   6 IN STRESS PERIOD   11
  ---------------------------------------------------------------------------

           1       2       3       4       5       6       7       8       9      10
 ...................................................................................
   1    21.50   21.15   20.49   20.07   19.87   19.87   20.07   20.49   21.15   21.50
   2    20.47   19.97   19.55   19.25   19.10   19.10   19.25   19.54   19.96   20.47
   3    18.99   18.50   18.13   17.88   17.76   17.75   17.88   18.12   18.49   18.98
   4    16.97   16.53   16.23   16.04   15.95   15.95   16.04   16.23   16.52   16.96
   5    14.10   14.01   13.91   13.82   13.78   13.78   13.82   13.90   14.00   14.09
   6    11.54   11.51   11.48   11.44   11.42   11.42   11.44   11.47   11.51   11.54
   7     9.06    9.04    9.00    8.97    8.94    8.94    8.96    9.00    9.03    9.06
   8     6.64    6.58    6.49    6.40    6.34    6.34    6.40    6.49    6.58    6.63
   9     4.40    4.24    3.95    3.62    3.48    3.48    3.62    3.95    4.23    4.40
  10     2.78    2.38    1.50    0.00    0.00    0.00    0.00    1.50    2.38    2.78
1
              HEAD IN LAYER   2 AT END OF TIME STEP   6 IN STRESS PERIOD   11
  ---------------------------------------------------------------------------

           1       2       3       4       5       6       7       8       9      10
 ...................................................................................
   1     0.42    0.44    0.45    0.45    0.44    0.42    0.40    0.37    0.34    0.30
   2     0.28    1.59    1.36    0.88    0.40    0.03    0.07    0.40    0.69    0.10
   3     0.09    0.96    0.53   -0.27   -1.42   -2.98   -2.59   -1.26   -0.36   -0.14
   4    -0.15    0.49    0.14   -0.45   -1.19   -2.03   -1.88   -1.17   -0.59   -0.38
   5    -0.41    0.04   -0.10   -0.36   -0.64   -0.86   -0.88   -0.75   -0.60   -0.63
   6    -0.69   -0.40   -0.45   -0.56   -0.68   -0.76   -0.79   -0.78   -0.76   -0.88
   7    -0.98   -0.96   -1.00   -1.06   -1.12   -1.16   -1.17   -1.17   -1.15   -1.14
   8    -1.28   -1.65   -1.76   -1.83   -1.88   -1.90   -1.89   -1.85   -1.76   -1.39
   9    -1.56   -2.41   -2.66   -2.83   -2.91   -2.92   -2.86   -2.71   -2.47   -1.64
  10    -1.82   -1.87   -1.92   -1.96   -1.98   -1.98   -1.97   -1.94   -1.91   -1.86
1
              HEAD IN LAYER   3 AT END OF TIME STEP   6 IN STRESS PERIOD   11
  ---------------------------------------------------------------------------

           1       2       3       4       5       6       7       8       9      10
 ...................................................................................
   1   -15.89  -16.05  -16.35  -16.75  -17.17  -17.51  -17.66  -17.64  -17.56  -17.50
   2   -16.02  -16.27  -16.76  -17.48  -18.33  -19.09  -19.15  -18.74  -18.33  -18.10
   3   -15.92  -16.30  -17.11  -18.49  -20.70  -24.29  -23.42  -20.72  -19.25  -18.60
   4   -15.05  -15.36  -15.99  -16.99  -18.40  -20.26  -19.98  -18.63  -17.75  -17.32
   5   -13.65  -13.82  -14.14  -14.60  -15.12  -15.56  -15.64  -15.45  -15.23  -15.10
   6   -12.19  -12.27  -12.42  -12.61  -12.82  -12.98  -13.06  -13.07  -13.04  -13.01
   7   -10.94  -10.98  -11.05  -11.13  -11.22  -11.30  -11.35  -11.38  -11.39  -11.39
   8   -10.01  -10.03  -10.06  -10.10  -10.14  -10.18  -10.22  -10.24  -10.25  -10.25
   9    -9.40   -9.41   -9.43   -9.45   -9.47   -9.50   -9.51   -9.53   -9.54   -9.54
  10    -9.10   -9.10   -9.11   -9.13   -9.14   -9.16   -9.17   -9.18   -9.19   -9.19

 HEAD WILL BE SAVED ON UNIT   21 AT END OF TIME STEP   6, STRESS PERIOD   11

 DRAWDOWN WILL BE SAVED ON UNIT   22 AT END OF TIME STEP   6, STRESS PERIOD   11
1
  VOLUMETRIC BUDGET FOR ENTIRE MODEL AT END OF TIME STEP  6 IN STRESS PERIOD  11
  ------------------------------------------------------------------------------

     CUMULATIVE VOLUMES      L**3       RATES FOR THIS TIME STEP      L**3/T
     ------------------                 ------------------------

           IN:                                      IN:
           ---                                      ---
             STORAGE =    18749264.0000               STORAGE =        4392.4199
       CONSTANT HEAD =       66711.6172         CONSTANT HEAD =          47.3008
               WELLS =   109620032.0000                 WELLS =       30000.0000
    INST. IB STORAGE =    27465414.0000      INST. IB STORAGE =        5561.4878
    DELAY IB STORAGE =    55827028.0000      DELAY IB STORAGE =       16572.6875

            TOTAL IN =   211728448.0000              TOTAL IN =       56573.8945

          OUT:                                     OUT:
          ----                                     ----
             STORAGE =           0.0000               STORAGE =           0.0000
       CONSTANT HEAD =   102138488.0000         CONSTANT HEAD =       26573.9590
               WELLS =   109590032.0000                 WELLS =       30000.0000
    INST. IB STORAGE =           0.0000      INST. IB STORAGE =           0.0000
    DELAY IB STORAGE =           0.0000      DELAY IB STORAGE =           0.0000

           TOTAL OUT =   211728512.0000             TOTAL OUT =       56573.9609

            IN - OUT =         -64.0000              IN - OUT =      -6.6406E-02

 PERCENT DISCREPANCY =           0.00     PERCENT DISCREPANCY =           0.00






          TIME SUMMARY AT END OF TIME STEP   6 IN STRESS PERIOD   11
                    SECONDS     MINUTES      HOURS       DAYS        YEARS
                    -----------------------------------------------------------
   TIME STEP LENGTH 9.18681E+06 1.53113E+05  2551.9      106.33     0.29111    
 STRESS PERIOD TIME 3.15619E+07 5.26032E+05  8767.2      365.30      1.0001    
         TOTAL TIME 3.15706E+08 5.26176E+06  87696.      3654.0      10.004    
1

                               VOLUMETRIC BUDGET FOR SYSTEMS OF DELAY INTERBEDS
                                          AT END OF TIME STEP  6 IN STRESS PERIOD 11

          |   C U M U L A T I V E   V O L U M E S   L**3           | R A T E S   F O R  T H I S  T I M E  S T E P   L**3/T  |
   SYSTEM |    CHANGE IN     BOUNDARY                    PERCENT   |    CHANGE IN     BOUNDARY                    PERCENT   |
   NUMBER |     STORAGE        FLOW           SUM      DISCREPANCY |     STORAGE        FLOW           SUM      DISCREPANCY |
  --------|--------------------------------------------------------|--------------------------------------------------------|
      1     45985.        -45985.       -0.78125E-02   -0.16989E-04     11.636        -11.636       -0.19073E-05   -0.16391E-04
      2    0.55781E+08   -0.55781E+08    -8.0000       -0.14342E-04     16561.        -16561.       -0.19531E-02   -0.11793E-04
  --------|--------------------------------------------------------|--------------------------------------------------------|
 TOTALS:    0.55827E+08   -0.55827E+08    -8.0000       -0.14330E-04     16573.        -16573.       -0.19531E-02   -0.11785E-04
1
                            STRESS PERIOD NO.   12, LENGTH =   365.3000    
                            -----------------------------------------------

                              NUMBER OF TIME STEPS =     6

                               MULTIPLIER FOR DELT =     1.300

                            INITIAL TIME STEP SIZE =   28.63744    

 REUSING NON-PARAMETER WELLS FROM LAST STRESS PERIOD

     14 WELLS
 
 SOLVING FOR HEAD 

    44 ITERATIONS FOR TIME STEP   1 IN STRESS PERIOD   12

 MAXIMUM HEAD CHANGE FOR EACH ITERATION:

    HEAD CHANGE   HEAD CHANGE   HEAD CHANGE   HEAD CHANGE   HEAD CHANGE
  LAYER,ROW,COL LAYER,ROW,COL LAYER,ROW,COL LAYER,ROW,COL LAYER,ROW,COL
 ----------------------------------------------------------------------
      1.726         4.039         3.304        -1.631        -3.233    
  (  3,  1, 10) (  3,  1,  6) (  3,  1,  1) (  3,  1,  1) (  3,  1,  1)
    -0.3317       -0.7919        -1.740        -1.140        0.8046    
  (  3,  1, 10) (  3,  1,  1) (  3,  1, 10) (  3,  2,  1) (  3,  1,  1)
    -0.8811E-01   -0.8568E-02   -0.6489E-02   -0.5372E-02   -0.2174E-02
  (  2,  7,  1) (  3,  3,  6) (  3,  3,  6) (  3,  3,  7) (  3,  2,  8)
    -0.2524E-02    0.7537E-03   -0.1453E-02    0.1435E-02    0.5987E-03
  (  3,  3,  6) (  3, 10,  8) (  3,  3,  6) (  3,  7,  7) (  3,  5,  1)
     0.1381E-02    0.1473E-02    0.1529E-02    0.2772E-02    0.1707E-02
  (  3, 10, 10) (  3,  2,  3) (  3, 10,  5) (  3,  1, 10) (  3,  1,  2)
     0.1145E-02    0.1125E-02    0.7770E-03    0.5469E-03    0.4116E-03
  (  3,  1, 10) (  3,  2,  2) (  3,  1,  4) (  3,  1,  3) (  3,  1,  3)
     0.2756E-03    0.2738E-03    0.1861E-03    0.1332E-03    0.9839E-04
  (  3,  1,  1) (  3,  2,  3) (  3,  1,  1) (  3,  1,  3) (  3,  1,  3)
     0.6611E-04    0.6499E-04    0.4510E-04    0.3189E-04    0.2397E-04
  (  3,  1, 10) (  3,  2,  2) (  3,  1,  4) (  3,  1,  3) (  3,  1,  1)
     0.1554E-04    0.1568E-04    0.1064E-04    0.7411E-05
  (  3,  1, 10) (  3,  1,  4) (  3,  2,  1) (  3,  1,  2)


 OUTPUT CONTROL FOR STRESS PERIOD   12   TIME STEP   1
    SAVE HEAD FOR ALL LAYERS

 HEAD WILL BE SAVED ON UNIT   21 AT END OF TIME STEP   1, STRESS PERIOD   12
 
 SOLVING FOR HEAD 
    41 ITERATIONS FOR TIME STEP   2 IN STRESS PERIOD   12

 MAXIMUM HEAD CHANGE FOR EACH ITERATION:

    HEAD CHANGE   HEAD CHANGE   HEAD CHANGE   HEAD CHANGE   HEAD CHANGE
  LAYER,ROW,COL LAYER,ROW,COL LAYER,ROW,COL LAYER,ROW,COL LAYER,ROW,COL
 ----------------------------------------------------------------------
      1.493         3.847         2.863        -1.454        -3.296    
  (  3,  1,  3) (  3,  1, 10) (  3,  1,  1) (  3,  1,  9) (  3,  1,  1)
    -0.2605       -0.6298        -1.543        0.2955        0.3465E-01
  (  3,  1, 10) (  3,  1,  1) (  3,  1, 10) (  3, 10,  1) (  2, 10,  1)
    -0.6958E-01   -0.8312E-02   -0.4163E-02   -0.2146E-02   -0.2541E-02
  (  2,  8,  1) (  2,  1,  2) (  3,  3,  6) (  3,  3,  7) (  3,  3,  6)
     0.1414E-02    0.1182E-02    0.2651E-02    0.1483E-02    0.3098E-02
  (  3, 10,  6) (  3,  9,  4) (  3,  1, 10) (  3, 10,  1) (  3,  1,  5)
     0.1423E-02    0.2992E-02    0.2559E-02    0.1822E-02    0.1328E-02
  (  3, 10,  1) (  3,  1, 10) (  3,  2,  3) (  3,  1,  6) (  3,  1,  7)
     0.8690E-03    0.8948E-03    0.6142E-03    0.4132E-03    0.3052E-03
  (  3,  1, 10) (  3,  2,  2) (  3,  2,  5) (  3,  1,  7) (  3,  1,  6)
     0.1873E-03    0.2073E-03    0.1390E-03    0.9557E-04    0.6993E-04
  (  3,  1,  1) (  3,  2,  5) (  3,  2,  5) (  3,  1,  6) (  3,  1,  8)
     0.4511E-04    0.4726E-04    0.3238E-04    0.2163E-04    0.1644E-04
  (  3,  1, 10) (  3,  2,  2) (  3,  1,  7) (  3,  1,  8) (  3,  1,  5)
     0.9615E-05
  (  3,  1, 10)


 OUTPUT CONTROL FOR STRESS PERIOD   12   TIME STEP   2
    SAVE HEAD FOR ALL LAYERS

 HEAD WILL BE SAVED ON UNIT   21 AT END OF TIME STEP   2, STRESS PERIOD   12
 
 SOLVING FOR HEAD 
    40 ITERATIONS FOR TIME STEP   3 IN STRESS PERIOD   12

 MAXIMUM HEAD CHANGE FOR EACH ITERATION:

    HEAD CHANGE   HEAD CHANGE   HEAD CHANGE   HEAD CHANGE   HEAD CHANGE
  LAYER,ROW,COL LAYER,ROW,COL LAYER,ROW,COL LAYER,ROW,COL LAYER,ROW,COL
 ----------------------------------------------------------------------
      1.300         2.761         2.732        -1.183        -3.432    
  (  3,  2, 10) (  3,  1,  8) (  3,  1,  1) (  3,  1,  4) (  3,  1,  1)
     0.1892       -0.4456        -1.202        0.5309        0.4642E-01
  (  2,  4,  1) (  3,  1,  1) (  3,  1, 10) (  3, 10,  1) (  2, 10, 10)
    -0.5562E-01   -0.1124E-01   -0.6840E-02   -0.3029E-02   -0.2599E-02
  (  2,  7,  1) (  2,  1,  2) (  3,  3,  6) (  3,  3,  7) (  3,  3,  6)
     0.2255E-02    0.1766E-02    0.2142E-02    0.2620E-02    0.3708E-02
  (  3,  1, 10) (  3,  7,  1) (  3,  1,  1) (  3,  7,  1) (  3,  1,  1)
     0.2219E-02    0.2612E-02    0.1780E-02    0.1128E-02    0.8050E-03
  (  3,  1,  1) (  3,  2,  2) (  3,  3,  2) (  3,  1,  4) (  3,  3,  2)
     0.4788E-03    0.5607E-03    0.3914E-03    0.2474E-03    0.1772E-03
  (  3,  1, 10) (  3,  3,  2) (  3,  3,  2) (  3,  3,  2) (  3,  3,  2)
     0.1048E-03    0.1238E-03    0.8642E-04    0.5519E-04    0.3960E-04
  (  3,  1,  1) (  3,  3,  2) (  3,  3,  2) (  3,  3,  2) (  3,  3,  2)
     0.2185E-04    0.2736E-04    0.1897E-04    0.1261E-04    0.8250E-05
  (  3,  1,  4) (  3,  3,  2) (  3,  3,  2) (  3,  3,  2) (  3,  1,  2)


 OUTPUT CONTROL FOR STRESS PERIOD   12   TIME STEP   3
    SAVE HEAD FOR ALL LAYERS

 HEAD WILL BE SAVED ON UNIT   21 AT END OF TIME STEP   3, STRESS PERIOD   12
 
 SOLVING FOR HEAD 
    36 ITERATIONS FOR TIME STEP   4 IN STRESS PERIOD   12

 MAXIMUM HEAD CHANGE FOR EACH ITERATION:

    HEAD CHANGE   HEAD CHANGE   HEAD CHANGE   HEAD CHANGE   HEAD CHANGE
  LAYER,ROW,COL LAYER,ROW,COL LAYER,ROW,COL LAYER,ROW,COL LAYER,ROW,COL
 ----------------------------------------------------------------------
     0.8924         2.132         1.819       -0.9937        -3.167    
  (  3,  2, 10) (  3,  1, 10) (  3,  2,  1) (  3,  2, 10) (  3,  1,  1)
     0.2681       -0.2079        0.7993E-01   -0.2179E-01   -0.1561E-01
  (  3, 10, 10) (  3,  2, 10) (  3,  1, 10) (  3,  3,  3) (  3,  3,  7)
    -0.7489E-02   -0.9638E-02   -0.3880E-02   -0.3453E-02    0.2521E-02
  (  2,  7,  1) (  3,  3,  7) (  3,  3,  7) (  3,  3,  7) (  3,  1,  1)
     0.1601E-02    0.3689E-02    0.3134E-02    0.1992E-02    0.1438E-02
  (  3,  7,  1) (  3,  1, 10) (  3,  1,  4) (  3,  1,  1) (  3,  1,  1)
     0.7683E-03    0.9811E-03    0.6850E-03    0.4168E-03    0.2905E-03
  (  3,  1,  1) (  3,  2,  2) (  3,  1,  1) (  3,  1,  4) (  3,  2, 10)
     0.1555E-03    0.1989E-03    0.1401E-03    0.8618E-04    0.6082E-04
  (  3,  1,  4) (  3,  1,  1) (  3,  1,  4) (  3,  2, 10) (  3,  1,  4)
     0.3558E-04    0.4104E-04    0.2838E-04    0.1778E-04    0.1288E-04
  (  2,  7,  1) (  3,  2,  2) (  3,  2, 10) (  3,  1,  4) (  3,  2, 10)
     0.6621E-05
  (  3,  1,  4)


 OUTPUT CONTROL FOR STRESS PERIOD   12   TIME STEP   4
    SAVE HEAD FOR ALL LAYERS

 HEAD WILL BE SAVED ON UNIT   21 AT END OF TIME STEP   4, STRESS PERIOD   12
 
 SOLVING FOR HEAD 
    31 ITERATIONS FOR TIME STEP   5 IN STRESS PERIOD   12

 MAXIMUM HEAD CHANGE FOR EACH ITERATION:

    HEAD CHANGE   HEAD CHANGE   HEAD CHANGE   HEAD CHANGE   HEAD CHANGE
  LAYER,ROW,COL LAYER,ROW,COL LAYER,ROW,COL LAYER,ROW,COL LAYER,ROW,COL
 ----------------------------------------------------------------------
     0.7579         1.438         1.088        -1.164        -2.771    
  (  3,  1,  1) (  3,  1, 10) (  3,  1,  1) (  3,  1,  9) (  3,  1,  1)
     0.7687        0.4615        0.1334        0.6886E-01   -0.4671E-01
  (  3, 10,  1) (  3,  9,  3) (  2,  1,  8) (  2, 10,  1) (  2, 10, 10)
     0.7469E-01    0.1262E-01   -0.7639E-02   -0.4099E-02   -0.2751E-02
  (  2,  6,  1) (  2,  1,  2) (  3,  9,  5) (  3,  9,  4) (  3,  9,  4)
    -0.2391E-02   -0.1904E-02   -0.1430E-02   -0.7780E-03   -0.5139E-03
  (  2,  5,  1) (  3,  9,  4) (  3,  9,  3) (  3,  9,  4) (  3,  9,  4)
    -0.2191E-03   -0.3554E-03   -0.2705E-03   -0.1465E-03   -0.9856E-04
  (  3, 10, 10) (  3,  9,  3) (  3,  9,  4) (  3,  9,  4) (  3,  9,  4)
    -0.4051E-04   -0.6832E-04   -0.5131E-04   -0.2849E-04   -0.1960E-04
  (  3,  9,  1) (  3,  9,  4) (  3,  9,  4) (  3,  9,  5) (  3,  3,  6)
    -0.9593E-05
  (  3,  3,  6)


 OUTPUT CONTROL FOR STRESS PERIOD   12   TIME STEP   5
    SAVE HEAD FOR ALL LAYERS

 HEAD WILL BE SAVED ON UNIT   21 AT END OF TIME STEP   5, STRESS PERIOD   12
 
 SOLVING FOR HEAD 
    32 ITERATIONS FOR TIME STEP   6 IN STRESS PERIOD   12

 MAXIMUM HEAD CHANGE FOR EACH ITERATION:

    HEAD CHANGE   HEAD CHANGE   HEAD CHANGE   HEAD CHANGE   HEAD CHANGE
  LAYER,ROW,COL LAYER,ROW,COL LAYER,ROW,COL LAYER,ROW,COL LAYER,ROW,COL
 ----------------------------------------------------------------------
     0.4644        0.8062        0.5043        -1.178        -1.273    
  (  3,  1,  1) (  3,  1, 10) (  3,  3,  4) (  3,  1, 10) (  3,  1,  1)
     0.5173        0.3071        0.8331E-01    0.2723E-01   -0.2607E-01
  (  3,  1, 10) (  3,  2,  2) (  2,  1,  9) (  2, 10,  1) (  2, 10, 10)
     0.2600E-01   -0.1221E-01   -0.1022E-01   -0.5229E-02   -0.3228E-02
  (  2,  7,  1) (  3,  2,  7) (  3,  3,  6) (  3,  3,  6) (  3,  3,  6)
    -0.2626E-02   -0.2147E-02   -0.1824E-02   -0.9376E-03   -0.5955E-03
  (  2,  7,  1) (  3,  3,  6) (  3,  3,  6) (  3,  3,  6) (  3,  3,  6)
    -0.4219E-03   -0.3937E-03   -0.3318E-03   -0.1762E-03   -0.1121E-03
  (  2,  8,  1) (  3,  3,  6) (  3,  3,  6) (  3,  3,  6) (  3,  3,  6)
    -0.4595E-04   -0.7400E-04   -0.6263E-04   -0.3448E-04   -0.2244E-04
  (  3,  3,  6) (  3,  3,  6) (  3,  3,  6) (  3,  3,  6) (  3,  3,  6)
    -0.1158E-04   -0.4316E-05
  (  2,  8,  1) (  3,  3,  6)


 OUTPUT CONTROL FOR STRESS PERIOD   12   TIME STEP   6
    PRINT BUDGET
    PRINT HEAD FOR ALL LAYERS
    SAVE HEAD FOR ALL LAYERS
    SAVE DRAWDOWN FOR ALL LAYERS
1
              HEAD IN LAYER   1 AT END OF TIME STEP   6 IN STRESS PERIOD   12
  ---------------------------------------------------------------------------

           1       2       3       4       5       6       7       8       9      10
 ...................................................................................
   1    21.39   21.04   20.38   19.96   19.76   19.75   19.96   20.37   21.04   21.38
   2    20.36   19.86   19.44   19.14   18.99   18.99   19.14   19.43   19.85   20.35
   3    18.88   18.39   18.02   17.77   17.65   17.65   17.77   18.01   18.38   18.87
   4    16.87   16.43   16.13   15.94   15.85   15.85   15.94   16.12   16.42   16.86
   5    14.00   13.91   13.81   13.73   13.69   13.68   13.73   13.81   13.91   13.99
   6    11.46   11.43   11.39   11.36   11.33   11.33   11.35   11.39   11.43   11.45
   7     8.99    8.97    8.93    8.90    8.87    8.87    8.90    8.93    8.97    8.99
   8     6.58    6.53    6.44    6.35    6.29    6.29    6.34    6.44    6.53    6.58
   9     4.36    4.20    3.91    3.59    3.45    3.45    3.59    3.91    4.20    4.36
  10     2.76    2.36    1.49    0.00    0.00    0.00    0.00    1.49    2.36    2.76
1
              HEAD IN LAYER   2 AT END OF TIME STEP   6 IN STRESS PERIOD   12
  ---------------------------------------------------------------------------

           1       2       3       4       5       6       7       8       9      10
 ...................................................................................
   1     0.07    0.09    0.09    0.09    0.08    0.06    0.04    0.02   -0.01   -0.05
   2    -0.07    1.20    0.96    0.48   -0.01   -0.37   -0.34   -0.01    0.29   -0.25
   3    -0.25    0.58    0.14   -0.66   -1.82   -3.38   -2.98   -1.66   -0.75   -0.48
   4    -0.47    0.13   -0.22   -0.81   -1.56   -2.40   -2.25   -1.54   -0.95   -0.71
   5    -0.73   -0.29   -0.43   -0.70   -0.98   -1.20   -1.22   -1.09   -0.94   -0.95
   6    -1.00   -0.70   -0.75   -0.87   -0.98   -1.06   -1.10   -1.08   -1.07   -1.19
   7    -1.28   -1.23   -1.27   -1.33   -1.39   -1.43   -1.44   -1.44   -1.43   -1.43
   8    -1.56   -1.89   -2.00   -2.07   -2.12   -2.14   -2.13   -2.09   -2.01   -1.68
   9    -1.83   -2.63   -2.88   -3.04   -3.12   -3.13   -3.08   -2.93   -2.70   -1.91
  10    -2.08   -2.14   -2.18   -2.22   -2.24   -2.24   -2.23   -2.21   -2.17   -2.12
1
              HEAD IN LAYER   3 AT END OF TIME STEP   6 IN STRESS PERIOD   12
  ---------------------------------------------------------------------------

           1       2       3       4       5       6       7       8       9      10
 ...................................................................................
   1   -16.59  -16.75  -17.06  -17.46  -17.88  -18.22  -18.37  -18.36  -18.28  -18.22
   2   -16.70  -16.96  -17.46  -18.17  -19.03  -19.79  -19.86  -19.45  -19.04  -18.81
   3   -16.58  -16.96  -17.78  -19.16  -21.38  -24.97  -24.11  -21.41  -19.94  -19.28
   4   -15.67  -15.98  -16.62  -17.62  -19.04  -20.90  -20.62  -19.27  -18.40  -17.97
   5   -14.22  -14.39  -14.72  -15.18  -15.70  -16.15  -16.23  -16.04  -15.82  -15.69
   6   -12.71  -12.79  -12.94  -13.13  -13.34  -13.51  -13.59  -13.60  -13.57  -13.54
   7   -11.41  -11.45  -11.52  -11.60  -11.69  -11.77  -11.83  -11.86  -11.87  -11.87
   8   -10.43  -10.45  -10.48  -10.53  -10.57  -10.61  -10.64  -10.67  -10.68  -10.68
   9    -9.79   -9.80   -9.82   -9.84   -9.87   -9.89   -9.91   -9.92   -9.93   -9.94
  10    -9.47   -9.48   -9.49   -9.51   -9.52   -9.54   -9.55   -9.56   -9.57   -9.57

 HEAD WILL BE SAVED ON UNIT   21 AT END OF TIME STEP   6, STRESS PERIOD   12

 DRAWDOWN WILL BE SAVED ON UNIT   22 AT END OF TIME STEP   6, STRESS PERIOD   12
1
  VOLUMETRIC BUDGET FOR ENTIRE MODEL AT END OF TIME STEP  6 IN STRESS PERIOD  12
  ------------------------------------------------------------------------------

     CUMULATIVE VOLUMES      L**3       RATES FOR THIS TIME STEP      L**3/T
     ------------------                 ------------------------

           IN:                                      IN:
           ---                                      ---
             STORAGE =    20331764.0000               STORAGE =        4292.1782
       CONSTANT HEAD =       85359.0859         CONSTANT HEAD =          53.5553
               WELLS =   120579040.0000                 WELLS =       30000.0000
    INST. IB STORAGE =    29485530.0000      INST. IB STORAGE =        5504.7915
    DELAY IB STORAGE =    61861480.0000      DELAY IB STORAGE =       16487.7598

            TOTAL IN =   232343168.0000              TOTAL IN =       56338.2852

          OUT:                                     OUT:
          ----                                     ----
             STORAGE =           0.0000               STORAGE =           0.0000
       CONSTANT HEAD =   111794208.0000         CONSTANT HEAD =       26338.3438
               WELLS =   120549040.0000                 WELLS =       30000.0000
    INST. IB STORAGE =           0.0000      INST. IB STORAGE =           0.0000
    DELAY IB STORAGE =           0.0000      DELAY IB STORAGE =           0.0000

           TOTAL OUT =   232343248.0000             TOTAL OUT =       56338.3438

            IN - OUT =         -80.0000              IN - OUT =      -5.8594E-02

 PERCENT DISCREPANCY =           0.00     PERCENT DISCREPANCY =           0.00






          TIME SUMMARY AT END OF TIME STEP   6 IN STRESS PERIOD   12
                    SECONDS     MINUTES      HOURS       DAYS        YEARS
                    -----------------------------------------------------------
   TIME STEP LENGTH 9.18681E+06 1.53113E+05  2551.9      106.33     0.29111    
 STRESS PERIOD TIME 3.15619E+07 5.26032E+05  8767.2      365.30      1.0001    
         TOTAL TIME 3.47268E+08 5.78779E+06  96463.      4019.3      11.004    
1

                               VOLUMETRIC BUDGET FOR SYSTEMS OF DELAY INTERBEDS
                                          AT END OF TIME STEP  6 IN STRESS PERIOD 12

          |   C U M U L A T I V E   V O L U M E S   L**3           | R A T E S   F O R  T H I S  T I M E  S T E P   L**3/T  |
   SYSTEM |    CHANGE IN     BOUNDARY                    PERCENT   |    CHANGE IN     BOUNDARY                    PERCENT   |
   NUMBER |     STORAGE        FLOW           SUM      DISCREPANCY |     STORAGE        FLOW           SUM      DISCREPANCY |
  --------|--------------------------------------------------------|--------------------------------------------------------|
      1     50175.        -50175.       -0.78125E-02   -0.15570E-04     11.363        -11.363       -0.38147E-05   -0.33572E-04
      2    0.61811E+08   -0.61811E+08    -8.0000       -0.12943E-04     16476.        -16476.       -0.78125E-02   -0.47416E-04
  --------|--------------------------------------------------------|--------------------------------------------------------|
 TOTALS:    0.61861E+08   -0.61861E+08    -8.0000       -0.12932E-04     16488.        -16488.       -0.78125E-02   -0.47384E-04
1
                            STRESS PERIOD NO.   13, LENGTH =   365.3000    
                            -----------------------------------------------

                              NUMBER OF TIME STEPS =     6

                               MULTIPLIER FOR DELT =     1.300

                            INITIAL TIME STEP SIZE =   28.63744    

 REUSING NON-PARAMETER WELLS FROM LAST STRESS PERIOD

     14 WELLS
 
 SOLVING FOR HEAD 

    44 ITERATIONS FOR TIME STEP   1 IN STRESS PERIOD   13

 MAXIMUM HEAD CHANGE FOR EACH ITERATION:

    HEAD CHANGE   HEAD CHANGE   HEAD CHANGE   HEAD CHANGE   HEAD CHANGE
  LAYER,ROW,COL LAYER,ROW,COL LAYER,ROW,COL LAYER,ROW,COL LAYER,ROW,COL
 ----------------------------------------------------------------------
      1.713         3.910         2.920        -1.630        -3.113    
  (  3,  2,  1) (  3,  1,  9) (  3,  1,  1) (  3,  1,  2) (  3,  1,  1)
    -0.3073       -0.7607        -1.682        -1.103        0.7856    
  (  3,  1, 10) (  3,  1,  1) (  3,  1, 10) (  3,  2,  1) (  3,  1,  1)
    -0.8452E-01   -0.8107E-02   -0.5930E-02   -0.4003E-02   -0.2154E-02
  (  2,  7,  1) (  3,  2,  8) (  3,  2,  9) (  3,  3,  6) (  3,  2,  5)
    -0.1784E-02    0.5760E-03   -0.7625E-03    0.1348E-02    0.5809E-03
  (  3,  1,  6) (  3, 10,  5) (  3,  3,  6) (  3,  8,  1) (  3,  2,  1)
     0.1345E-02    0.1479E-02    0.1505E-02    0.2675E-02    0.1695E-02
  (  3, 10,  1) (  3,  2,  2) (  3,  9, 10) (  3,  2,  6) (  3,  1, 10)
     0.1182E-02    0.1120E-02    0.7731E-03    0.5481E-03    0.4101E-03
  (  3,  1, 10) (  3,  2,  2) (  3,  1, 10) (  3,  1, 10) (  3,  1, 10)
     0.2717E-03    0.2724E-03    0.1861E-03    0.1326E-03    0.9970E-04
  (  3,  1, 10) (  3,  2,  2) (  3,  2,  1) (  3,  1, 10) (  3,  1, 10)
     0.6866E-04    0.6515E-04    0.4482E-04    0.3220E-04    0.2402E-04
  (  3,  1, 10) (  3,  2,  2) (  3,  1, 10) (  3,  2,  1) (  3,  1, 10)
     0.1650E-04    0.1601E-04    0.1066E-04    0.7083E-05
  (  3,  1, 10) (  3,  2,  2) (  3,  2,  1) (  3,  1,  1)


 OUTPUT CONTROL FOR STRESS PERIOD   13   TIME STEP   1
    SAVE HEAD FOR ALL LAYERS

 HEAD WILL BE SAVED ON UNIT   21 AT END OF TIME STEP   1, STRESS PERIOD   13
 
 SOLVING FOR HEAD 
    42 ITERATIONS FOR TIME STEP   2 IN STRESS PERIOD   13

 MAXIMUM HEAD CHANGE FOR EACH ITERATION:

    HEAD CHANGE   HEAD CHANGE   HEAD CHANGE   HEAD CHANGE   HEAD CHANGE
  LAYER,ROW,COL LAYER,ROW,COL LAYER,ROW,COL LAYER,ROW,COL LAYER,ROW,COL
 ----------------------------------------------------------------------
      1.742         3.671         3.210        -1.497        -3.400    
  (  3,  1,  7) (  3,  1, 10) (  3,  1,  1) (  3,  1,  8) (  3,  1,  1)
    -0.2411       -0.5800        -1.465        0.2888       -0.3281E-01
  (  3,  1, 10) (  3,  1,  1) (  3,  1, 10) (  3, 10,  1) (  2,  1,  1)
    -0.6570E-01   -0.9460E-02   -0.3992E-02   -0.1751E-02   -0.2545E-02
  (  2,  7,  1) (  2,  1,  2) (  3,  3,  5) (  3,  3,  7) (  3,  3,  6)
     0.1346E-02    0.8956E-03    0.2417E-02    0.1229E-02    0.2950E-02
  (  3,  8,  1) (  3,  9,  4) (  3,  1,  6) (  3,  9,  4) (  3,  2,  1)
     0.1535E-02    0.2831E-02    0.2544E-02    0.1914E-02    0.1422E-02
  (  3,  1,  3) (  3,  2,  1) (  3,  1,  3) (  3,  2, 10) (  3,  2, 10)
     0.8759E-03    0.9269E-03    0.6503E-03    0.4509E-03    0.3309E-03
  (  3,  2, 10) (  3,  2, 10) (  3,  2, 10) (  3,  2, 10) (  3,  2, 10)
     0.2080E-03    0.2181E-03    0.1516E-03    0.1053E-03    0.7944E-04
  (  3,  2, 10) (  3,  2, 10) (  3,  2, 10) (  3,  2, 10) (  3,  2, 10)
     0.4929E-04    0.5100E-04    0.3594E-04    0.2503E-04    0.1836E-04
  (  3,  2, 10) (  3,  2, 10) (  3,  2, 10) (  3,  2, 10) (  3,  1,  3)
     0.1231E-04    0.8378E-05
  (  3,  2, 10) (  3,  2, 10)


 OUTPUT CONTROL FOR STRESS PERIOD   13   TIME STEP   2
    SAVE HEAD FOR ALL LAYERS

 HEAD WILL BE SAVED ON UNIT   21 AT END OF TIME STEP   2, STRESS PERIOD   13
 
 SOLVING FOR HEAD 
    40 ITERATIONS FOR TIME STEP   3 IN STRESS PERIOD   13

 MAXIMUM HEAD CHANGE FOR EACH ITERATION:

    HEAD CHANGE   HEAD CHANGE   HEAD CHANGE   HEAD CHANGE   HEAD CHANGE
  LAYER,ROW,COL LAYER,ROW,COL LAYER,ROW,COL LAYER,ROW,COL LAYER,ROW,COL
 ----------------------------------------------------------------------
      1.289         2.898         2.392        -1.169        -3.362    
  (  3,  3, 10) (  3,  1, 10) (  3,  2,  1) (  3,  2, 10) (  3,  1,  1)
     0.1802       -0.4320        -1.138        0.5357        0.4477E-01
  (  2,  5,  1) (  3,  1,  1) (  3,  1, 10) (  3, 10,  1) (  2, 10, 10)
    -0.5252E-01   -0.1184E-01   -0.6119E-02   -0.2335E-02   -0.1951E-02
  (  2,  7,  1) (  2,  1,  2) (  3,  3,  6) (  3,  4,  5) (  3,  3,  6)
     0.1949E-02    0.1708E-02    0.2233E-02    0.2546E-02    0.3665E-02
  (  3,  1,  1) (  3,  7,  1) (  3,  1,  9) (  3,  6,  1) (  3,  1,  9)
     0.2094E-02    0.2517E-02    0.1707E-02    0.1115E-02    0.8050E-03
  (  3,  1, 10) (  3,  2,  8) (  3,  2,  8) (  3,  1,  9) (  3,  1,  9)
     0.4916E-03    0.5385E-03    0.3737E-03    0.2416E-03    0.1721E-03
  (  3,  1, 10) (  3,  2,  8) (  3,  1,  8) (  3,  1,  8) (  3,  1,  8)
     0.9849E-04    0.1174E-03    0.8052E-04    0.5214E-04    0.3826E-04
  (  3,  1,  9) (  3,  1, 10) (  3,  2,  8) (  3,  1,  7) (  3,  1,  9)
     0.2274E-04    0.2547E-04    0.1729E-04    0.1143E-04    0.8028E-05
  (  3,  1, 10) (  3,  2,  9) (  3,  1,  6) (  3,  1,  9) (  3,  1, 10)


 OUTPUT CONTROL FOR STRESS PERIOD   13   TIME STEP   3
    SAVE HEAD FOR ALL LAYERS

 HEAD WILL BE SAVED ON UNIT   21 AT END OF TIME STEP   3, STRESS PERIOD   13
 
 SOLVING FOR HEAD 
    36 ITERATIONS FOR TIME STEP   4 IN STRESS PERIOD   13

 MAXIMUM HEAD CHANGE FOR EACH ITERATION:

    HEAD CHANGE   HEAD CHANGE   HEAD CHANGE   HEAD CHANGE   HEAD CHANGE
  LAYER,ROW,COL LAYER,ROW,COL LAYER,ROW,COL LAYER,ROW,COL LAYER,ROW,COL
 ----------------------------------------------------------------------
      1.023         1.821         1.735       -0.9864        -3.144    
  (  3,  1, 10) (  3,  2, 10) (  3,  2,  4) (  3,  1, 10) (  3,  1,  1)
     0.2204        0.8341E-01   -0.2994E-01   -0.1891E-01   -0.1494E-01
  (  3, 10, 10) (  3,  9,  7) (  3,  3,  7) (  3,  3,  7) (  3,  3,  7)
    -0.6017E-02   -0.9289E-02   -0.3683E-02   -0.3277E-02    0.2521E-02
  (  3,  1, 10) (  3,  3,  7) (  3,  3,  7) (  3,  3,  7) (  3,  1,  1)
     0.1620E-02    0.3691E-02    0.3136E-02    0.2060E-02    0.1454E-02
  (  3,  8, 10) (  3,  1, 10) (  3,  1,  6) (  3,  1,  1) (  3,  1,  1)
     0.8343E-03    0.9588E-03    0.7100E-03    0.4225E-03    0.2987E-03
  (  3,  1,  1) (  3,  1, 10) (  3,  1,  1) (  3,  1,  5) (  3,  1,  1)
     0.1711E-03    0.2049E-03    0.1413E-03    0.8932E-04    0.6269E-04
  (  3,  1,  1) (  3,  1,  1) (  3,  1,  5) (  3,  1,  1) (  3,  1,  1)
     0.3851E-04    0.4059E-04    0.3111E-04    0.1883E-04    0.1313E-04
  (  3,  1,  1) (  3,  1, 10) (  3,  1,  1) (  3,  1,  6) (  3,  1,  1)
     0.8208E-05
  (  3,  1,  1)


 OUTPUT CONTROL FOR STRESS PERIOD   13   TIME STEP   4
    SAVE HEAD FOR ALL LAYERS

 HEAD WILL BE SAVED ON UNIT   21 AT END OF TIME STEP   4, STRESS PERIOD   13
 
 SOLVING FOR HEAD 
    31 ITERATIONS FOR TIME STEP   5 IN STRESS PERIOD   13

 MAXIMUM HEAD CHANGE FOR EACH ITERATION:

    HEAD CHANGE   HEAD CHANGE   HEAD CHANGE   HEAD CHANGE   HEAD CHANGE
  LAYER,ROW,COL LAYER,ROW,COL LAYER,ROW,COL LAYER,ROW,COL LAYER,ROW,COL
 ----------------------------------------------------------------------
     0.7528         1.209         1.176        -1.060        -2.722    
  (  3,  1, 10) (  3,  2, 10) (  3,  1,  1) (  3,  1, 10) (  3,  1,  1)
     0.7606        0.4548        0.1285        0.6742E-01   -0.4532E-01
  (  3, 10,  1) (  3,  9,  3) (  2,  1,  8) (  2, 10,  1) (  2, 10, 10)
     0.7339E-01    0.1297E-01   -0.7273E-02   -0.3934E-02   -0.2610E-02
  (  2,  6,  1) (  2,  1,  2) (  3,  9,  5) (  3,  9,  5) (  3,  9,  4)
    -0.2264E-02   -0.1815E-02   -0.1367E-02   -0.7378E-03   -0.4946E-03
  (  2,  6,  1) (  3,  9,  4) (  3,  9,  4) (  3,  9,  5) (  3,  9,  5)
    -0.2014E-03   -0.3388E-03   -0.2567E-03   -0.1415E-03   -0.9412E-04
  (  3, 10,  5) (  3,  9,  4) (  3,  9,  5) (  3,  9,  5) (  3,  8,  6)
    -0.4032E-04   -0.6506E-04   -0.4969E-04   -0.2753E-04   -0.1874E-04
  (  3,  8,  7) (  3,  9,  4) (  3,  8,  6) (  3,  8,  6) (  3,  8,  6)
    -0.8232E-05
  (  3,  8,  6)


 OUTPUT CONTROL FOR STRESS PERIOD   13   TIME STEP   5
    SAVE HEAD FOR ALL LAYERS

 HEAD WILL BE SAVED ON UNIT   21 AT END OF TIME STEP   5, STRESS PERIOD   13
 
 SOLVING FOR HEAD 
    32 ITERATIONS FOR TIME STEP   6 IN STRESS PERIOD   13

 MAXIMUM HEAD CHANGE FOR EACH ITERATION:

    HEAD CHANGE   HEAD CHANGE   HEAD CHANGE   HEAD CHANGE   HEAD CHANGE
  LAYER,ROW,COL LAYER,ROW,COL LAYER,ROW,COL LAYER,ROW,COL LAYER,ROW,COL
 ----------------------------------------------------------------------
     0.4080        0.7394        0.5812        -1.174        -1.295    
  (  3,  3, 10) (  3,  1,  9) (  3,  1,  1) (  3,  1, 10) (  3,  1,  1)
     0.5271        0.3166        0.8663E-01    0.2901E-01   -0.2738E-01
  (  3,  1, 10) (  3,  2,  2) (  2,  1,  9) (  2, 10,  1) (  2, 10, 10)
     0.2734E-01   -0.1232E-01   -0.1013E-01   -0.5195E-02   -0.3166E-02
  (  2,  7,  1) (  3,  2,  7) (  3,  3,  6) (  3,  3,  6) (  3,  3,  6)
    -0.2649E-02   -0.2117E-02   -0.1807E-02   -0.9134E-03   -0.5856E-03
  (  2,  7,  1) (  3,  3,  6) (  3,  3,  6) (  3,  3,  6) (  3,  3,  6)
    -0.4202E-03   -0.3849E-03   -0.3223E-03   -0.1713E-03   -0.1072E-03
  (  2,  8,  1) (  3,  3,  6) (  3,  3,  6) (  3,  3,  6) (  3,  3,  6)
    -0.4418E-04   -0.7114E-04   -0.6134E-04   -0.3220E-04   -0.2098E-04
  (  2,  8,  1) (  3,  3,  6) (  3,  3,  6) (  3,  3,  6) (  3,  3,  6)
    -0.1178E-04   -0.4212E-05
  (  2,  8,  1) (  3,  2,  7)


 OUTPUT CONTROL FOR STRESS PERIOD   13   TIME STEP   6
    PRINT BUDGET
    PRINT HEAD FOR ALL LAYERS
    SAVE HEAD FOR ALL LAYERS
    SAVE DRAWDOWN FOR ALL LAYERS
1
              HEAD IN LAYER   1 AT END OF TIME STEP   6 IN STRESS PERIOD   13
  ---------------------------------------------------------------------------

           1       2       3       4       5       6       7       8       9      10
 ...................................................................................
   1    21.28   20.93   20.27   19.85   19.65   19.64   19.85   20.26   20.93   21.28
   2    20.26   19.75   19.33   19.03   18.88   18.88   19.03   19.32   19.75   20.25
   3    18.78   18.29   17.92   17.67   17.54   17.54   17.66   17.91   18.27   18.77
   4    16.77   16.33   16.03   15.84   15.75   15.75   15.84   16.03   16.32   16.76
   5    13.91   13.82   13.72   13.64   13.59   13.59   13.63   13.72   13.82   13.90
   6    11.38   11.35   11.31   11.28   11.25   11.25   11.27   11.31   11.35   11.37
   7     8.92    8.90    8.87    8.83    8.81    8.81    8.83    8.86    8.90    8.92
   8     6.53    6.48    6.39    6.30    6.24    6.24    6.29    6.39    6.47    6.53
   9     4.32    4.16    3.88    3.56    3.43    3.42    3.56    3.88    4.16    4.32
  10     2.73    2.34    1.48    0.00    0.00    0.00    0.00    1.48    2.33    2.73
1
              HEAD IN LAYER   2 AT END OF TIME STEP   6 IN STRESS PERIOD   13
  ---------------------------------------------------------------------------

           1       2       3       4       5       6       7       8       9      10
 ...................................................................................
   1    -0.28   -0.26   -0.26   -0.26   -0.27   -0.29   -0.31   -0.33   -0.36   -0.40
   2    -0.41    0.82    0.57    0.09   -0.40   -0.77   -0.73   -0.40   -0.10   -0.59
   3    -0.58    0.21   -0.24   -1.05   -2.20   -3.76   -3.37   -2.04   -1.13   -0.81
   4    -0.80   -0.22   -0.58   -1.17   -1.92   -2.77   -2.62   -1.91   -1.31   -1.04
   5    -1.04   -0.62   -0.76   -1.03   -1.32   -1.54   -1.56   -1.43   -1.27   -1.26
   6    -1.30   -1.00   -1.05   -1.17   -1.28   -1.37   -1.40   -1.39   -1.37   -1.49
   7    -1.57   -1.50   -1.54   -1.60   -1.66   -1.70   -1.72   -1.71   -1.70   -1.72
   8    -1.84   -2.14   -2.24   -2.31   -2.36   -2.38   -2.37   -2.33   -2.25   -1.96
   9    -2.10   -2.86   -3.10   -3.26   -3.34   -3.35   -3.30   -3.15   -2.93   -2.18
  10    -2.34   -2.40   -2.44   -2.48   -2.50   -2.50   -2.49   -2.47   -2.43   -2.39
1
              HEAD IN LAYER   3 AT END OF TIME STEP   6 IN STRESS PERIOD   13
  ---------------------------------------------------------------------------

           1       2       3       4       5       6       7       8       9      10
 ...................................................................................
   1   -17.27  -17.43  -17.74  -18.15  -18.57  -18.92  -19.07  -19.06  -18.98  -18.92
   2   -17.38  -17.63  -18.13  -18.85  -19.71  -20.48  -20.55  -20.14  -19.73  -19.50
   3   -17.23  -17.61  -18.43  -19.82  -22.04  -25.64  -24.78  -22.07  -20.60  -19.95
   4   -16.29  -16.60  -17.24  -18.24  -19.66  -21.52  -21.25  -19.90  -19.02  -18.59
   5   -14.79  -14.96  -15.29  -15.75  -16.28  -16.72  -16.81  -16.62  -16.40  -16.27
   6   -13.22  -13.31  -13.46  -13.66  -13.86  -14.03  -14.12  -14.12  -14.09  -14.07
   7   -11.88  -11.92  -11.99  -12.07  -12.17  -12.25  -12.30  -12.33  -12.34  -12.34
   8   -10.86  -10.88  -10.91  -10.96  -11.00  -11.04  -11.08  -11.10  -11.11  -11.12
   9   -10.19  -10.20  -10.22  -10.24  -10.27  -10.29  -10.31  -10.33  -10.34  -10.34
  10    -9.86   -9.87   -9.88   -9.89   -9.91   -9.93   -9.94   -9.95   -9.96   -9.96

 HEAD WILL BE SAVED ON UNIT   21 AT END OF TIME STEP   6, STRESS PERIOD   13

 DRAWDOWN WILL BE SAVED ON UNIT   22 AT END OF TIME STEP   6, STRESS PERIOD   13
1
  VOLUMETRIC BUDGET FOR ENTIRE MODEL AT END OF TIME STEP  6 IN STRESS PERIOD  13
  ------------------------------------------------------------------------------

     CUMULATIVE VOLUMES      L**3       RATES FOR THIS TIME STEP      L**3/T
     ------------------                 ------------------------

           IN:                                      IN:
           ---                                      ---
             STORAGE =    21878638.0000               STORAGE =        4196.4062
       CONSTANT HEAD =      106294.2734         CONSTANT HEAD =          59.8237
               WELLS =   131538048.0000                 WELLS =       30000.0000
    INST. IB STORAGE =    31487442.0000      INST. IB STORAGE =        5458.4810
    DELAY IB STORAGE =    67862592.0000      DELAY IB STORAGE =       16393.3223

            TOTAL IN =   252873008.0000              TOTAL IN =       56108.0312

          OUT:                                     OUT:
          ----                                     ----
             STORAGE =           0.0000               STORAGE =           0.0000
       CONSTANT HEAD =   121365048.0000         CONSTANT HEAD =       26108.1035
               WELLS =   131508048.0000                 WELLS =       30000.0000
    INST. IB STORAGE =           0.0000      INST. IB STORAGE =           0.0000
    DELAY IB STORAGE =           0.0000      DELAY IB STORAGE =           0.0000

           TOTAL OUT =   252873088.0000             TOTAL OUT =       56108.1016

            IN - OUT =         -80.0000              IN - OUT =      -7.0313E-02

 PERCENT DISCREPANCY =           0.00     PERCENT DISCREPANCY =           0.00






          TIME SUMMARY AT END OF TIME STEP   6 IN STRESS PERIOD   13
                    SECONDS     MINUTES      HOURS       DAYS        YEARS
                    -----------------------------------------------------------
   TIME STEP LENGTH 9.18681E+06 1.53113E+05  2551.9      106.33     0.29111    
 STRESS PERIOD TIME 3.15619E+07 5.26032E+05  8767.2      365.30      1.0001    
         TOTAL TIME 3.78830E+08 6.31383E+06 1.05230E+05  4384.6      12.004    
1

                               VOLUMETRIC BUDGET FOR SYSTEMS OF DELAY INTERBEDS
                                          AT END OF TIME STEP  6 IN STRESS PERIOD 13

          |   C U M U L A T I V E   V O L U M E S   L**3           | R A T E S   F O R  T H I S  T I M E  S T E P   L**3/T  |
   SYSTEM |    CHANGE IN     BOUNDARY                    PERCENT   |    CHANGE IN     BOUNDARY                    PERCENT   |
   NUMBER |     STORAGE        FLOW           SUM      DISCREPANCY |     STORAGE        FLOW           SUM      DISCREPANCY |
  --------|--------------------------------------------------------|--------------------------------------------------------|
      1     54270.        -54270.       -0.78125E-02   -0.14396E-04     11.118        -11.118       -0.28610E-05   -0.25732E-04
      2    0.67808E+08   -0.67808E+08    -8.0000       -0.11798E-04     16382.        -16382.       -0.97656E-03   -0.59611E-05
  --------|--------------------------------------------------------|--------------------------------------------------------|
 TOTALS:    0.67863E+08   -0.67863E+08    -8.0000       -0.11789E-04     16393.        -16393.         0.0000         0.0000    
1
                            STRESS PERIOD NO.   14, LENGTH =   365.3000    
                            -----------------------------------------------

                              NUMBER OF TIME STEPS =     6

                               MULTIPLIER FOR DELT =     1.300

                            INITIAL TIME STEP SIZE =   28.63744    

 REUSING NON-PARAMETER WELLS FROM LAST STRESS PERIOD

     14 WELLS
 
 SOLVING FOR HEAD 

    44 ITERATIONS FOR TIME STEP   1 IN STRESS PERIOD   14

 MAXIMUM HEAD CHANGE FOR EACH ITERATION:

    HEAD CHANGE   HEAD CHANGE   HEAD CHANGE   HEAD CHANGE   HEAD CHANGE
  LAYER,ROW,COL LAYER,ROW,COL LAYER,ROW,COL LAYER,ROW,COL LAYER,ROW,COL
 ----------------------------------------------------------------------
      1.734         4.172         2.714        -1.643        -3.040    
  (  3,  3, 10) (  3,  1,  8) (  3,  4,  6) (  3,  1, 10) (  3,  1,  1)
    -0.2981       -0.7164        -1.641        -1.147        0.8123    
  (  3,  1, 10) (  3,  1,  1) (  3,  1, 10) (  3,  2,  1) (  3,  1,  1)
    -0.7970E-01   -0.8168E-02   -0.5783E-02   -0.4166E-02   -0.1851E-02
  (  2,  7,  1) (  3,  2,  9) (  3,  2,  7) (  3,  4,  6) (  3,  2,  2)
    -0.1840E-02   -0.7933E-03   -0.8286E-03    0.1460E-02    0.6759E-03
  (  3,  4,  6) (  3,  4,  6) (  3,  4,  6) (  3,  7,  8) (  3,  1,  7)
     0.1299E-02    0.1365E-02    0.1548E-02    0.2431E-02    0.1768E-02
  (  3,  7, 10) (  3,  1,  7) (  3,  9, 10) (  3,  3, 10) (  3,  1,  7)
     0.1189E-02    0.1121E-02    0.8154E-03    0.5802E-03    0.4360E-03
  (  3,  1,  7) (  3,  1,  7) (  3,  1,  7) (  3,  1,  7) (  3,  1,  7)
     0.2882E-03    0.2796E-03    0.1970E-03    0.1428E-03    0.1063E-03
  (  3,  1,  7) (  3,  1,  7) (  3,  1,  7) (  3,  1,  7) (  3,  1,  7)
     0.7192E-04    0.6752E-04    0.4866E-04    0.3489E-04    0.2666E-04
  (  3,  1,  7) (  3,  1,  7) (  3,  1,  7) (  3,  1,  7) (  3,  1,  7)
     0.1738E-04    0.1731E-04    0.1173E-04    0.6068E-05
  (  3,  1,  7) (  3,  1,  7) (  3,  1,  7) (  3,  1,  7)


 OUTPUT CONTROL FOR STRESS PERIOD   14   TIME STEP   1
    SAVE HEAD FOR ALL LAYERS

 HEAD WILL BE SAVED ON UNIT   21 AT END OF TIME STEP   1, STRESS PERIOD   14
 
 SOLVING FOR HEAD 
    42 ITERATIONS FOR TIME STEP   2 IN STRESS PERIOD   14

 MAXIMUM HEAD CHANGE FOR EACH ITERATION:

    HEAD CHANGE   HEAD CHANGE   HEAD CHANGE   HEAD CHANGE   HEAD CHANGE
  LAYER,ROW,COL LAYER,ROW,COL LAYER,ROW,COL LAYER,ROW,COL LAYER,ROW,COL
 ----------------------------------------------------------------------
      1.238         3.173         2.770        -1.294        -3.227    
  (  3,  1, 10) (  3,  1,  9) (  3,  1,  1) (  3,  1, 10) (  3,  1,  1)
    -0.2351       -0.5836        -1.454        0.2739       -0.3285E-01
  (  3,  1, 10) (  3,  1,  1) (  3,  1, 10) (  3, 10,  1) (  2,  1,  1)
    -0.6518E-01   -0.9413E-02   -0.2981E-02   -0.1811E-02   -0.2146E-02
  (  2,  7,  1) (  2,  1,  2) (  3,  4,  4) (  3,  3,  6) (  3,  3,  7)
     0.1358E-02    0.9473E-03    0.2547E-02    0.1305E-02    0.2989E-02
  (  3,  8,  1) (  3,  8, 10) (  3,  1, 10) (  3,  9,  2) (  3,  2, 10)
     0.1300E-02    0.2837E-02    0.2470E-02    0.1774E-02    0.1289E-02
  (  3,  2,  4) (  3,  1,  5) (  3,  2,  4) (  3,  2,  4) (  3,  2,  4)
     0.7954E-03    0.8829E-03    0.6134E-03    0.4085E-03    0.3029E-03
  (  3,  1, 10) (  3,  2,  4) (  3,  2,  4) (  3,  2,  4) (  3,  2,  4)
     0.1749E-03    0.2084E-03    0.1418E-03    0.9594E-04    0.7031E-04
  (  3,  1,  1) (  3,  2,  4) (  3,  2,  4) (  3,  2,  4) (  3,  2,  4)
     0.4135E-04    0.4756E-04    0.3342E-04    0.2254E-04    0.1631E-04
  (  3,  1, 10) (  3,  2,  4) (  3,  2,  4) (  3,  2,  4) (  3,  2,  4)
     0.1004E-04    0.5822E-05
  (  3,  2,  4) (  3,  2,  4)


 OUTPUT CONTROL FOR STRESS PERIOD   14   TIME STEP   2
    SAVE HEAD FOR ALL LAYERS

 HEAD WILL BE SAVED ON UNIT   21 AT END OF TIME STEP   2, STRESS PERIOD   14
 
 SOLVING FOR HEAD 
    40 ITERATIONS FOR TIME STEP   3 IN STRESS PERIOD   14

 MAXIMUM HEAD CHANGE FOR EACH ITERATION:

    HEAD CHANGE   HEAD CHANGE   HEAD CHANGE   HEAD CHANGE   HEAD CHANGE
  LAYER,ROW,COL LAYER,ROW,COL LAYER,ROW,COL LAYER,ROW,COL LAYER,ROW,COL
 ----------------------------------------------------------------------
      1.212         2.398         2.494       -0.9982        -3.312    
  (  3,  1, 10) (  3,  1,  7) (  3,  1,  1) (  3,  1,  3) (  3,  1,  1)
     0.1853       -0.4334        -1.132        0.5197        0.4283E-01
  (  2,  5,  1) (  3,  1,  1) (  3,  1, 10) (  3, 10,  1) (  2, 10, 10)
    -0.5338E-01   -0.1200E-01   -0.5972E-02   -0.2533E-02   -0.2089E-02
  (  2,  7,  1) (  2,  1,  2) (  3,  2,  5) (  3,  3,  6) (  3,  2,  6)
     0.2185E-02    0.1660E-02    0.1928E-02    0.2634E-02    0.3432E-02
  (  3,  1, 10) (  3,  7,  1) (  3,  1, 10) (  3,  7,  1) (  3,  1, 10)
     0.2119E-02    0.2427E-02    0.1690E-02    0.1105E-02    0.7847E-03
  (  3,  1,  1) (  3,  2,  2) (  3,  1,  2) (  3,  1,  2) (  3,  1,  2)
     0.4637E-03    0.5271E-03    0.3617E-03    0.2381E-03    0.1773E-03
  (  3,  1,  2) (  3,  1,  2) (  3,  1,  2) (  3,  1,  2) (  3,  1,  2)
     0.9941E-04    0.1144E-03    0.8067E-04    0.5390E-04    0.3746E-04
  (  3,  1,  2) (  3,  1,  2) (  3,  1,  2) (  3,  1,  2) (  3,  1,  2)
     0.2302E-04    0.2504E-04    0.1787E-04    0.1151E-04    0.7313E-05
  (  3,  1,  2) (  3,  1,  2) (  3,  1,  2) (  3,  1,  2) (  3,  1,  2)


 OUTPUT CONTROL FOR STRESS PERIOD   14   TIME STEP   3
    SAVE HEAD FOR ALL LAYERS

 HEAD WILL BE SAVED ON UNIT   21 AT END OF TIME STEP   3, STRESS PERIOD   14
 
 SOLVING FOR HEAD 
    36 ITERATIONS FOR TIME STEP   4 IN STRESS PERIOD   14

 MAXIMUM HEAD CHANGE FOR EACH ITERATION:

    HEAD CHANGE   HEAD CHANGE   HEAD CHANGE   HEAD CHANGE   HEAD CHANGE
  LAYER,ROW,COL LAYER,ROW,COL LAYER,ROW,COL LAYER,ROW,COL LAYER,ROW,COL
 ----------------------------------------------------------------------
     0.8131         2.075         1.823       -0.9117        -3.080    
  (  3,  1,  5) (  3,  1, 10) (  3,  1,  1) (  3,  2, 10) (  3,  1,  1)
     0.2307       -0.1838        0.8008E-01   -0.2022E-01   -0.1435E-01
  (  3, 10, 10) (  3,  2, 10) (  3,  1, 10) (  3,  3,  3) (  3,  1, 10)
    -0.7725E-02   -0.8522E-02   -0.3384E-02   -0.2848E-02    0.2287E-02
  (  2,  7,  1) (  3,  3,  7) (  3,  3,  7) (  3,  3,  7) (  3,  1,  1)
     0.1666E-02    0.3896E-02    0.2991E-02    0.1902E-02    0.1346E-02
  (  3, 10, 10) (  3,  1,  1) (  3,  2,  2) (  3,  1,  1) (  3,  1,  1)
     0.7284E-03    0.9276E-03    0.6538E-03    0.3852E-03    0.2680E-03
  (  3,  1,  1) (  3,  2,  2) (  3,  1,  1) (  3,  1,  1) (  3,  1,  1)
     0.1415E-03    0.1869E-03    0.1302E-03    0.7867E-04    0.5539E-04
  (  3,  1,  1) (  3,  1,  1) (  3,  2,  4) (  3,  1,  1) (  3,  1,  1)
     0.3209E-04    0.3810E-04    0.2789E-04    0.1561E-04    0.1146E-04
  (  2,  7,  1) (  3,  2,  2) (  3,  1,  1) (  3,  1,  2) (  3,  1,  1)
     0.5517E-05
  (  3,  1,  1)


 OUTPUT CONTROL FOR STRESS PERIOD   14   TIME STEP   4
    SAVE HEAD FOR ALL LAYERS

 HEAD WILL BE SAVED ON UNIT   21 AT END OF TIME STEP   4, STRESS PERIOD   14
 
 SOLVING FOR HEAD 
    31 ITERATIONS FOR TIME STEP   5 IN STRESS PERIOD   14

 MAXIMUM HEAD CHANGE FOR EACH ITERATION:

    HEAD CHANGE   HEAD CHANGE   HEAD CHANGE   HEAD CHANGE   HEAD CHANGE
  LAYER,ROW,COL LAYER,ROW,COL LAYER,ROW,COL LAYER,ROW,COL LAYER,ROW,COL
 ----------------------------------------------------------------------
     0.7464         1.154         1.235        -1.047        -2.788    
  (  3,  1, 10) (  3,  1,  8) (  3,  1,  1) (  3,  1, 10) (  3,  1,  1)
     0.7483        0.4436        0.1342        0.6909E-01   -0.4657E-01
  (  3, 10,  1) (  3,  9,  3) (  2,  1,  8) (  2, 10,  1) (  2, 10, 10)
     0.7523E-01    0.1284E-01   -0.7147E-02   -0.3801E-02   -0.2516E-02
  (  2,  6,  1) (  2,  1,  2) (  3,  8,  4) (  3,  8,  4) (  3,  8,  4)
    -0.2340E-02   -0.1742E-02   -0.1332E-02   -0.7228E-03   -0.4755E-03
  (  2,  6,  1) (  3,  9,  4) (  3,  8,  4) (  3,  8,  4) (  3,  8,  4)
    -0.1936E-03   -0.3256E-03   -0.2540E-03   -0.1382E-03   -0.9269E-04
  (  3, 10, 10) (  3,  9,  3) (  3,  8,  4) (  3,  8,  4) (  3,  8,  4)
    -0.3825E-04   -0.6299E-04   -0.4898E-04   -0.2716E-04   -0.1805E-04
  (  3,  8,  5) (  3,  8,  4) (  3,  8,  4) (  3,  8,  4) (  3,  8,  4)
    -0.7840E-05
  (  3,  8,  4)


 OUTPUT CONTROL FOR STRESS PERIOD   14   TIME STEP   5
    SAVE HEAD FOR ALL LAYERS

 HEAD WILL BE SAVED ON UNIT   21 AT END OF TIME STEP   5, STRESS PERIOD   14
 
 SOLVING FOR HEAD 
    32 ITERATIONS FOR TIME STEP   6 IN STRESS PERIOD   14

 MAXIMUM HEAD CHANGE FOR EACH ITERATION:

    HEAD CHANGE   HEAD CHANGE   HEAD CHANGE   HEAD CHANGE   HEAD CHANGE
  LAYER,ROW,COL LAYER,ROW,COL LAYER,ROW,COL LAYER,ROW,COL LAYER,ROW,COL
 ----------------------------------------------------------------------
     0.4846        0.6401        0.5055        -1.143        -1.219    
  (  3,  1, 10) (  3,  1,  7) (  3,  2,  2) (  3,  1, 10) (  3,  1,  1)
     0.5046        0.2966        0.8103E-01    0.2682E-01   -0.2572E-01
  (  3,  1, 10) (  3,  2,  2) (  2,  1,  9) (  2, 10,  1) (  2, 10, 10)
     0.2574E-01   -0.1172E-01   -0.9634E-02   -0.4917E-02   -0.3007E-02
  (  2,  7,  1) (  3,  2,  7) (  3,  3,  6) (  3,  3,  6) (  3,  3,  6)
    -0.2523E-02   -0.2008E-02   -0.1709E-02   -0.8642E-03   -0.5498E-03
  (  2,  7,  1) (  3,  3,  6) (  3,  3,  6) (  3,  3,  6) (  3,  3,  6)
    -0.3994E-03   -0.3638E-03   -0.3036E-03   -0.1604E-03   -0.1009E-03
  (  2,  8,  1) (  3,  3,  6) (  3,  3,  6) (  3,  3,  6) (  3,  3,  6)
    -0.4187E-04   -0.6666E-04   -0.5686E-04   -0.2983E-04   -0.1967E-04
  (  2,  8,  1) (  3,  3,  6) (  3,  3,  6) (  3,  3,  6) (  3,  3,  6)
    -0.1124E-04   -0.3983E-05
  (  2,  8,  1) (  3,  3,  6)


 OUTPUT CONTROL FOR STRESS PERIOD   14   TIME STEP   6
    PRINT BUDGET
    PRINT HEAD FOR ALL LAYERS
    SAVE HEAD FOR ALL LAYERS
    SAVE DRAWDOWN FOR ALL LAYERS
1
              HEAD IN LAYER   1 AT END OF TIME STEP   6 IN STRESS PERIOD   14
  ---------------------------------------------------------------------------

           1       2       3       4       5       6       7       8       9      10
 ...................................................................................
   1    21.18   20.83   20.16   19.74   19.54   19.54   19.74   20.16   20.82   21.17
   2    20.15   19.65   19.22   18.93   18.77   18.77   18.92   19.22   19.64   20.14
   3    18.68   18.18   17.81   17.57   17.44   17.44   17.56   17.80   18.17   18.67
   4    16.67   16.24   15.94   15.75   15.65   15.65   15.74   15.93   16.23   16.66
   5    13.82   13.73   13.63   13.55   13.50   13.50   13.55   13.63   13.73   13.81
   6    11.30   11.27   11.23   11.20   11.18   11.17   11.19   11.23   11.27   11.29
   7     8.86    8.84    8.80    8.76    8.74    8.74    8.76    8.80    8.83    8.85
   8     6.48    6.43    6.34    6.25    6.19    6.19    6.24    6.34    6.42    6.48
   9     4.29    4.13    3.85    3.53    3.40    3.40    3.53    3.85    4.13    4.29
  10     2.71    2.32    1.46    0.00    0.00    0.00    0.00    1.46    2.31    2.71
1
              HEAD IN LAYER   2 AT END OF TIME STEP   6 IN STRESS PERIOD   14
  ---------------------------------------------------------------------------

           1       2       3       4       5       6       7       8       9      10
 ...................................................................................
   1    -0.62   -0.60   -0.60   -0.60   -0.62   -0.63   -0.65   -0.68   -0.71   -0.74
   2    -0.74    0.44    0.18   -0.30   -0.79   -1.16   -1.12   -0.79   -0.48   -0.93
   3    -0.91   -0.16   -0.61   -1.42   -2.58   -4.14   -3.75   -2.42   -1.50   -1.14
   4    -1.12   -0.57   -0.93   -1.53   -2.28   -3.12   -2.98   -2.26   -1.67   -1.36
   5    -1.35   -0.94   -1.09   -1.36   -1.64   -1.87   -1.89   -1.76   -1.60   -1.57
   6    -1.60   -1.30   -1.35   -1.47   -1.58   -1.67   -1.70   -1.69   -1.67   -1.79
   7    -1.86   -1.77   -1.81   -1.87   -1.93   -1.97   -1.99   -1.98   -1.98   -2.02
   8    -2.12   -2.39   -2.48   -2.55   -2.60   -2.62   -2.61   -2.58   -2.50   -2.24
   9    -2.38   -3.09   -3.32   -3.48   -3.56   -3.57   -3.52   -3.38   -3.16   -2.46
  10    -2.61   -2.66   -2.71   -2.74   -2.76   -2.76   -2.75   -2.73   -2.70   -2.65
1
              HEAD IN LAYER   3 AT END OF TIME STEP   6 IN STRESS PERIOD   14
  ---------------------------------------------------------------------------

           1       2       3       4       5       6       7       8       9      10
 ...................................................................................
   1   -17.94  -18.10  -18.41  -18.82  -19.25  -19.59  -19.75  -19.74  -19.67  -19.61
   2   -18.03  -18.29  -18.79  -19.52  -20.38  -21.15  -21.22  -20.81  -20.40  -20.17
   3   -17.86  -18.25  -19.07  -20.46  -22.68  -26.29  -25.43  -22.72  -21.25  -20.60
   4   -16.89  -17.20  -17.84  -18.85  -20.28  -22.14  -21.87  -20.52  -19.64  -19.21
   5   -15.35  -15.52  -15.85  -16.32  -16.85  -17.29  -17.38  -17.19  -16.97  -16.84
   6   -13.74  -13.82  -13.97  -14.17  -14.38  -14.55  -14.64  -14.65  -14.62  -14.59
   7   -12.35  -12.39  -12.46  -12.55  -12.64  -12.72  -12.78  -12.81  -12.82  -12.82
   8   -11.30  -11.32  -11.35  -11.39  -11.44  -11.48  -11.52  -11.54  -11.55  -11.56
   9   -10.60  -10.61  -10.63  -10.66  -10.68  -10.71  -10.73  -10.74  -10.75  -10.75
  10   -10.26  -10.26  -10.28  -10.29  -10.31  -10.32  -10.34  -10.35  -10.36  -10.36

 HEAD WILL BE SAVED ON UNIT   21 AT END OF TIME STEP   6, STRESS PERIOD   14

 DRAWDOWN WILL BE SAVED ON UNIT   22 AT END OF TIME STEP   6, STRESS PERIOD   14
1
  VOLUMETRIC BUDGET FOR ENTIRE MODEL AT END OF TIME STEP  6 IN STRESS PERIOD  14
  ------------------------------------------------------------------------------

     CUMULATIVE VOLUMES      L**3       RATES FOR THIS TIME STEP      L**3/T
     ------------------                 ------------------------

           IN:                                      IN:
           ---                                      ---
             STORAGE =    23391452.0000               STORAGE =        4104.8740
       CONSTANT HEAD =      129522.0625         CONSTANT HEAD =          66.1047
               WELLS =   142497040.0000                 WELLS =       30000.0000
    INST. IB STORAGE =    33473488.0000      INST. IB STORAGE =        5417.7388
    DELAY IB STORAGE =    73828320.0000      DELAY IB STORAGE =       16293.9941

            TOTAL IN =   273319808.0000              TOTAL IN =       55882.7109

          OUT:                                     OUT:
          ----                                     ----
             STORAGE =           0.0000               STORAGE =           0.0000
       CONSTANT HEAD =   130852880.0000         CONSTANT HEAD =       25882.7969
               WELLS =   142467040.0000                 WELLS =       30000.0000
    INST. IB STORAGE =           0.0000      INST. IB STORAGE =           0.0000
    DELAY IB STORAGE =           0.0000      DELAY IB STORAGE =           0.0000

           TOTAL OUT =   273319936.0000             TOTAL OUT =       55882.7969

            IN - OUT =        -128.0000              IN - OUT =      -8.5938E-02

 PERCENT DISCREPANCY =           0.00     PERCENT DISCREPANCY =           0.00






          TIME SUMMARY AT END OF TIME STEP   6 IN STRESS PERIOD   14
                    SECONDS     MINUTES      HOURS       DAYS        YEARS
                    -----------------------------------------------------------
   TIME STEP LENGTH 9.18681E+06 1.53113E+05  2551.9      106.33     0.29111    
 STRESS PERIOD TIME 3.15619E+07 5.26032E+05  8767.2      365.30      1.0001    
         TOTAL TIME 4.10391E+08 6.83986E+06 1.13998E+05  4749.9      13.005    
1

                               VOLUMETRIC BUDGET FOR SYSTEMS OF DELAY INTERBEDS
                                          AT END OF TIME STEP  6 IN STRESS PERIOD 14

          |   C U M U L A T I V E   V O L U M E S   L**3           | R A T E S   F O R  T H I S  T I M E  S T E P   L**3/T  |
   SYSTEM |    CHANGE IN     BOUNDARY                    PERCENT   |    CHANGE IN     BOUNDARY                    PERCENT   |
   NUMBER |     STORAGE        FLOW           SUM      DISCREPANCY |     STORAGE        FLOW           SUM      DISCREPANCY |
  --------|--------------------------------------------------------|--------------------------------------------------------|
      1     58273.        -58273.       -0.78125E-02   -0.13407E-04     10.830        -10.830       -0.95367E-06   -0.88058E-05
      2    0.73770E+08   -0.73770E+08    -8.0000       -0.10845E-04     16283.        -16283.       -0.19531E-02   -0.11995E-04
  --------|--------------------------------------------------------|--------------------------------------------------------|
 TOTALS:    0.73828E+08   -0.73828E+08    -8.0000       -0.10836E-04     16294.        -16294.       -0.19531E-02   -0.11987E-04
1
                            STRESS PERIOD NO.   15, LENGTH =   365.3000    
                            -----------------------------------------------

                              NUMBER OF TIME STEPS =     6

                               MULTIPLIER FOR DELT =     1.300

                            INITIAL TIME STEP SIZE =   28.63744    

 REUSING NON-PARAMETER WELLS FROM LAST STRESS PERIOD

     14 WELLS
 
 SOLVING FOR HEAD 

    44 ITERATIONS FOR TIME STEP   1 IN STRESS PERIOD   15

 MAXIMUM HEAD CHANGE FOR EACH ITERATION:

    HEAD CHANGE   HEAD CHANGE   HEAD CHANGE   HEAD CHANGE   HEAD CHANGE
  LAYER,ROW,COL LAYER,ROW,COL LAYER,ROW,COL LAYER,ROW,COL LAYER,ROW,COL
 ----------------------------------------------------------------------
      1.763         4.354         2.954        -1.644        -3.006    
  (  3,  3, 10) (  3,  1, 10) (  3,  2,  1) (  3,  1,  8) (  3,  1,  1)
    -0.2956       -0.7423        -1.621        -1.132        0.8148    
  (  3,  1, 10) (  3,  1,  1) (  3,  1, 10) (  3,  2,  1) (  3,  1,  1)
    -0.7832E-01   -0.7670E-02   -0.5691E-02   -0.3531E-02   -0.2143E-02
  (  2,  7,  1) (  3,  3,  8) (  3,  2,  8) (  3,  1,  2) (  3,  2,  1)
    -0.1810E-02    0.6874E-03   -0.6735E-03    0.1473E-02    0.5804E-03
  (  3,  1,  7) (  3,  7,  1) (  3,  1,  7) (  3,  7, 10) (  3,  9,  3)
     0.1275E-02    0.1435E-02    0.1595E-02    0.2721E-02    0.1586E-02
  (  3,  8,  1) (  3,  2,  2) (  3, 10, 10) (  3,  1, 10) (  3,  1,  2)
     0.1075E-02    0.1074E-02    0.7263E-03    0.5138E-03    0.3834E-03
  (  3,  1, 10) (  3,  2,  2) (  3,  2,  2) (  3,  1,  2) (  3,  1,  2)
     0.2581E-03    0.2608E-03    0.1771E-03    0.1234E-03    0.9218E-04
  (  3,  1,  1) (  3,  2,  2) (  3,  2,  2) (  3,  1,  3) (  3,  1,  2)
     0.6278E-04    0.6261E-04    0.4208E-04    0.3007E-04    0.2267E-04
  (  3,  1, 10) (  3,  2,  2) (  3,  2,  2) (  3,  1,  1) (  3,  1,  3)
     0.1485E-04    0.1516E-04    0.1032E-04    0.5170E-05
  (  3,  1,  1) (  3,  2,  2) (  3,  1,  2) (  3,  1,  2)


 OUTPUT CONTROL FOR STRESS PERIOD   15   TIME STEP   1
    SAVE HEAD FOR ALL LAYERS

 HEAD WILL BE SAVED ON UNIT   21 AT END OF TIME STEP   1, STRESS PERIOD   15
 
 SOLVING FOR HEAD 
    42 ITERATIONS FOR TIME STEP   2 IN STRESS PERIOD   15

 MAXIMUM HEAD CHANGE FOR EACH ITERATION:

    HEAD CHANGE   HEAD CHANGE   HEAD CHANGE   HEAD CHANGE   HEAD CHANGE
  LAYER,ROW,COL LAYER,ROW,COL LAYER,ROW,COL LAYER,ROW,COL LAYER,ROW,COL
 ----------------------------------------------------------------------
      1.219         3.426         2.505        -1.124        -3.156    
  (  3,  1,  1) (  3,  1, 10) (  3,  2,  4) (  3,  1, 10) (  3,  1,  1)
    -0.2341       -0.5851        -1.456        0.2567       -0.3498E-01
  (  3,  1, 10) (  3,  1,  1) (  3,  1, 10) (  3, 10,  1) (  2,  1,  1)
    -0.6467E-01   -0.1028E-01   -0.3096E-02   -0.2009E-02   -0.2145E-02
  (  2,  7,  1) (  2,  1,  2) (  3,  3,  4) (  3,  2,  6) (  3,  3,  6)
     0.1173E-02    0.9124E-03    0.2515E-02    0.1044E-02    0.2993E-02
  (  3,  6,  1) (  3,  7,  3) (  3,  1, 10) (  3,  9,  1) (  3,  1, 10)
     0.1222E-02    0.2795E-02    0.2498E-02    0.1747E-02    0.1268E-02
  (  3,  1,  1) (  3,  2,  2) (  3,  2,  1) (  3,  2,  1) (  3,  1,  1)
     0.8008E-03    0.8753E-03    0.5910E-03    0.3974E-03    0.2948E-03
  (  3,  1, 10) (  3,  2,  2) (  3,  2,  2) (  3,  2,  1) (  3,  2,  1)
     0.1875E-03    0.2039E-03    0.1367E-03    0.9280E-04    0.6611E-04
  (  3,  1,  1) (  3,  2,  2) (  3,  2,  1) (  3,  2,  1) (  3,  1,  1)
     0.4156E-04    0.4630E-04    0.3120E-04    0.2116E-04    0.1603E-04
  (  3,  1, 10) (  3,  2,  2) (  3,  2,  2) (  3,  1,  1) (  3,  2,  1)
     0.1002E-04    0.4914E-05
  (  3,  1,  1) (  3,  1,  1)


 OUTPUT CONTROL FOR STRESS PERIOD   15   TIME STEP   2
    SAVE HEAD FOR ALL LAYERS

 HEAD WILL BE SAVED ON UNIT   21 AT END OF TIME STEP   2, STRESS PERIOD   15
 
 SOLVING FOR HEAD 
    40 ITERATIONS FOR TIME STEP   3 IN STRESS PERIOD   15

 MAXIMUM HEAD CHANGE FOR EACH ITERATION:

    HEAD CHANGE   HEAD CHANGE   HEAD CHANGE   HEAD CHANGE   HEAD CHANGE
  LAYER,ROW,COL LAYER,ROW,COL LAYER,ROW,COL LAYER,ROW,COL LAYER,ROW,COL
 ----------------------------------------------------------------------
      1.126         2.796         2.091       -0.9499        -3.135    
  (  3,  1,  1) (  3,  1, 10) (  3,  3,  5) (  3,  1, 10) (  3,  1,  1)
     0.1866       -0.4229        -1.140        0.5095        0.4179E-01
  (  2,  5,  1) (  3,  1,  1) (  3,  1, 10) (  3, 10,  1) (  2, 10,  9)
    -0.5306E-01   -0.1227E-01   -0.6004E-02   -0.2616E-02   -0.2104E-02
  (  2,  7,  1) (  2,  1,  2) (  3,  3,  7) (  3,  3, 10) (  3,  3,  8)
     0.1769E-02    0.1760E-02    0.1950E-02    0.2523E-02    0.3422E-02
  (  3,  1,  3) (  3,  8, 10) (  3,  1,  7) (  3,  7, 10) (  3,  1,  7)
     0.2063E-02    0.2432E-02    0.1669E-02    0.1040E-02    0.7563E-03
  (  3,  1,  1) (  3,  2,  2) (  3,  2,  2) (  3,  1,  7) (  3,  2,  2)
     0.4511E-03    0.5266E-03    0.3539E-03    0.2313E-03    0.1611E-03
  (  3,  1, 10) (  3,  2,  2) (  3,  2,  2) (  3,  2,  2) (  3,  2,  2)
     0.9915E-04    0.1154E-03    0.8017E-04    0.4912E-04    0.3668E-04
  (  3,  1,  1) (  3,  2,  2) (  3,  2,  2) (  3,  1,  7) (  3,  2,  2)
     0.2142E-04    0.2518E-04    0.1700E-04    0.1135E-04    0.6242E-05
  (  3,  1, 10) (  3,  2,  2) (  3,  2,  2) (  3,  2,  2) (  3,  1, 10)


 OUTPUT CONTROL FOR STRESS PERIOD   15   TIME STEP   3
    SAVE HEAD FOR ALL LAYERS

 HEAD WILL BE SAVED ON UNIT   21 AT END OF TIME STEP   3, STRESS PERIOD   15
 
 SOLVING FOR HEAD 
    36 ITERATIONS FOR TIME STEP   4 IN STRESS PERIOD   15

 MAXIMUM HEAD CHANGE FOR EACH ITERATION:

    HEAD CHANGE   HEAD CHANGE   HEAD CHANGE   HEAD CHANGE   HEAD CHANGE
  LAYER,ROW,COL LAYER,ROW,COL LAYER,ROW,COL LAYER,ROW,COL LAYER,ROW,COL
 ----------------------------------------------------------------------
     0.8127         1.800         1.801       -0.8318        -3.026    
  (  3,  1, 10) (  3,  1,  9) (  3,  2,  1) (  3,  1,  5) (  3,  1,  1)
     0.2114       -0.1829        0.8276E-01   -0.2059E-01   -0.1387E-01
  (  3, 10, 10) (  3,  2, 10) (  3,  1, 10) (  3,  3,  2) (  3,  1, 10)
    -0.7834E-02   -0.8125E-02   -0.3121E-02   -0.2582E-02    0.2242E-02
  (  2,  7,  1) (  3,  1, 10) (  3,  3,  7) (  3,  3,  7) (  3,  1,  1)
     0.1887E-02    0.3778E-02    0.2980E-02    0.1883E-02    0.1314E-02
  (  3, 10,  1) (  3,  1,  1) (  3,  2,  2) (  3,  1,  1) (  3,  1,  1)
     0.7142E-03    0.9188E-03    0.6454E-03    0.3755E-03    0.2643E-03
  (  3,  1,  1) (  3,  2,  2) (  3,  1,  1) (  3,  2,  1) (  3,  1,  1)
     0.1375E-03    0.1844E-03    0.1291E-03    0.7752E-04    0.5381E-04
  (  3,  1, 10) (  3,  1,  1) (  3,  3,  1) (  3,  1,  1) (  3,  1,  1)
     0.3209E-04    0.3717E-04    0.2638E-04    0.1599E-04    0.1118E-04
  (  2,  7,  1) (  3,  2,  2) (  3,  2,  1) (  3,  1,  1) (  3,  1,  1)
     0.5504E-05
  (  2,  7,  1)


 OUTPUT CONTROL FOR STRESS PERIOD   15   TIME STEP   4
    SAVE HEAD FOR ALL LAYERS

 HEAD WILL BE SAVED ON UNIT   21 AT END OF TIME STEP   4, STRESS PERIOD   15
 
 SOLVING FOR HEAD 
    31 ITERATIONS FOR TIME STEP   5 IN STRESS PERIOD   15

 MAXIMUM HEAD CHANGE FOR EACH ITERATION:

    HEAD CHANGE   HEAD CHANGE   HEAD CHANGE   HEAD CHANGE   HEAD CHANGE
  LAYER,ROW,COL LAYER,ROW,COL LAYER,ROW,COL LAYER,ROW,COL LAYER,ROW,COL
 ----------------------------------------------------------------------
     0.6993         1.177         1.260        -1.034        -2.805    
  (  3,  1, 10) (  3,  1,  9) (  3,  1,  1) (  3,  1,  6) (  3,  1,  1)
     0.7363        0.4388        0.1368        0.6978E-01   -0.4698E-01
  (  3, 10,  1) (  3,  9,  3) (  2,  1,  8) (  2, 10,  1) (  2, 10, 10)
     0.7593E-01    0.1268E-01   -0.7008E-02   -0.3759E-02   -0.2520E-02
  (  2,  6,  1) (  2,  1,  2) (  3,  9,  5) (  3,  9,  4) (  3,  9,  5)
    -0.2456E-02   -0.1735E-02   -0.1309E-02   -0.7179E-03   -0.4735E-03
  (  2,  6,  1) (  3,  9,  5) (  3,  9,  4) (  3,  9,  6) (  3,  9,  4)
    -0.2006E-03   -0.3246E-03   -0.2489E-03   -0.1361E-03   -0.9183E-04
  (  3, 10, 10) (  3,  9,  4) (  3,  9,  5) (  3,  9,  4) (  3,  9,  6)
    -0.3870E-04   -0.6277E-04   -0.4760E-04   -0.2655E-04   -0.1798E-04
  (  3,  9,  4) (  3,  9,  6) (  3,  9,  4) (  3,  9,  6) (  3,  9,  4)
    -0.8278E-05
  (  3,  9,  2)


 OUTPUT CONTROL FOR STRESS PERIOD   15   TIME STEP   5
    SAVE HEAD FOR ALL LAYERS

 HEAD WILL BE SAVED ON UNIT   21 AT END OF TIME STEP   5, STRESS PERIOD   15
 
 SOLVING FOR HEAD 
    32 ITERATIONS FOR TIME STEP   6 IN STRESS PERIOD   15

 MAXIMUM HEAD CHANGE FOR EACH ITERATION:

    HEAD CHANGE   HEAD CHANGE   HEAD CHANGE   HEAD CHANGE   HEAD CHANGE
  LAYER,ROW,COL LAYER,ROW,COL LAYER,ROW,COL LAYER,ROW,COL LAYER,ROW,COL
 ----------------------------------------------------------------------
     0.4401        0.7408        0.4706        -1.126        -1.176    
  (  3,  1,  1) (  3,  1, 10) (  3,  2,  1) (  3,  1, 10) (  3,  1,  1)
     0.4919        0.2893        0.7933E-01    0.2641E-01   -0.2529E-01
  (  3,  1, 10) (  3,  2,  2) (  2,  1,  9) (  2, 10,  1) (  2, 10, 10)
     0.2523E-01   -0.1145E-01   -0.9316E-02   -0.4758E-02   -0.2882E-02
  (  2,  7,  1) (  3,  2,  7) (  3,  3,  6) (  3,  3,  6) (  3,  3,  6)
    -0.2481E-02   -0.1931E-02   -0.1649E-02   -0.8250E-03   -0.5275E-03
  (  2,  7,  1) (  3,  3,  6) (  3,  3,  6) (  3,  3,  6) (  3,  3,  6)
    -0.3957E-03   -0.3471E-03   -0.2900E-03   -0.1524E-03   -0.9441E-04
  (  2,  8,  1) (  3,  3,  6) (  3,  3,  6) (  3,  3,  6) (  3,  3,  6)
    -0.4190E-04   -0.6264E-04   -0.5401E-04   -0.2877E-04   -0.1836E-04
  (  2,  8,  1) (  3,  3,  6) (  3,  3,  6) (  3,  3,  6) (  3,  3,  6)
    -0.1122E-04   -0.3787E-05
  (  2,  8,  1) (  3,  3,  7)


 OUTPUT CONTROL FOR STRESS PERIOD   15   TIME STEP   6
    PRINT BUDGET
    PRINT HEAD FOR ALL LAYERS
    SAVE HEAD FOR ALL LAYERS
    SAVE DRAWDOWN FOR ALL LAYERS
1
              HEAD IN LAYER   1 AT END OF TIME STEP   6 IN STRESS PERIOD   15
  ---------------------------------------------------------------------------

           1       2       3       4       5       6       7       8       9      10
 ...................................................................................
   1    21.07   20.72   20.06   19.64   19.43   19.43   19.63   20.05   20.71   21.06
   2    20.05   19.54   19.12   18.82   18.67   18.67   18.82   19.11   19.54   20.04
   3    18.58   18.08   17.71   17.47   17.34   17.34   17.46   17.70   18.07   18.57
   4    16.58   16.14   15.84   15.65   15.56   15.55   15.64   15.83   16.13   16.57
   5    13.74   13.65   13.55   13.46   13.42   13.42   13.46   13.54   13.64   13.73
   6    11.22   11.20   11.16   11.12   11.10   11.10   11.12   11.15   11.19   11.22
   7     8.79    8.77    8.74    8.70    8.68    8.68    8.70    8.73    8.77    8.79
   8     6.43    6.38    6.29    6.20    6.15    6.15    6.20    6.29    6.37    6.43
   9     4.25    4.10    3.82    3.50    3.37    3.37    3.50    3.81    4.09    4.25
  10     2.69    2.30    1.45    0.00    0.00    0.00    0.00    1.45    2.29    2.68
1
              HEAD IN LAYER   2 AT END OF TIME STEP   6 IN STRESS PERIOD   15
  ---------------------------------------------------------------------------

           1       2       3       4       5       6       7       8       9      10
 ...................................................................................
   1    -0.96   -0.94   -0.94   -0.94   -0.96   -0.97   -0.99   -1.02   -1.04   -1.08
   2    -1.07    0.07   -0.19   -0.67   -1.16   -1.53   -1.50   -1.17   -0.85   -1.26
   3    -1.23   -0.51   -0.98   -1.78   -2.94   -4.51   -4.12   -2.79   -1.87   -1.47
   4    -1.43   -0.91   -1.28   -1.87   -2.63   -3.47   -3.33   -2.61   -2.01   -1.67
   5    -1.66   -1.26   -1.41   -1.68   -1.97   -2.19   -2.22   -2.08   -1.93   -1.88
   6    -1.89   -1.60   -1.65   -1.76   -1.88   -1.96   -2.00   -1.99   -1.97   -2.09
   7    -2.14   -2.04   -2.08   -2.14   -2.20   -2.24   -2.26   -2.26   -2.25   -2.30
   8    -2.40   -2.64   -2.73   -2.80   -2.85   -2.87   -2.86   -2.83   -2.76   -2.52
   9    -2.65   -3.32   -3.55   -3.71   -3.79   -3.80   -3.74   -3.60   -3.39   -2.73
  10    -2.88   -2.93   -2.97   -3.00   -3.02   -3.03   -3.02   -2.99   -2.96   -2.92
1
              HEAD IN LAYER   3 AT END OF TIME STEP   6 IN STRESS PERIOD   15
  ---------------------------------------------------------------------------

           1       2       3       4       5       6       7       8       9      10
 ...................................................................................
   1   -18.59  -18.76  -19.07  -19.48  -19.91  -20.26  -20.41  -20.41  -20.33  -20.27
   2   -18.68  -18.93  -19.44  -20.17  -21.03  -21.80  -21.88  -21.47  -21.06  -20.83
   3   -18.49  -18.87  -19.70  -21.09  -23.32  -26.92  -26.06  -23.36  -21.89  -21.24
   4   -17.48  -17.79  -18.44  -19.45  -20.88  -22.74  -22.47  -21.12  -20.25  -19.82
   5   -15.90  -16.08  -16.41  -16.88  -17.41  -17.86  -17.94  -17.76  -17.54  -17.41
   6   -14.25  -14.34  -14.49  -14.69  -14.90  -15.07  -15.16  -15.17  -15.14  -15.12
   7   -12.83  -12.87  -12.94  -13.03  -13.12  -13.20  -13.26  -13.29  -13.30  -13.30
   8   -11.74  -11.76  -11.79  -11.84  -11.88  -11.93  -11.96  -11.98  -12.00  -12.00
   9   -11.02  -11.03  -11.05  -11.08  -11.10  -11.13  -11.15  -11.16  -11.17  -11.18
  10   -10.66  -10.67  -10.68  -10.70  -10.71  -10.73  -10.75  -10.76  -10.77  -10.77

 HEAD WILL BE SAVED ON UNIT   21 AT END OF TIME STEP   6, STRESS PERIOD   15

 DRAWDOWN WILL BE SAVED ON UNIT   22 AT END OF TIME STEP   6, STRESS PERIOD   15
1
  VOLUMETRIC BUDGET FOR ENTIRE MODEL AT END OF TIME STEP  6 IN STRESS PERIOD  15
  ------------------------------------------------------------------------------

     CUMULATIVE VOLUMES      L**3       RATES FOR THIS TIME STEP      L**3/T
     ------------------                 ------------------------

           IN:                                      IN:
           ---                                      ---
             STORAGE =    24871678.0000               STORAGE =        4017.2500
       CONSTANT HEAD =      155046.7344         CONSTANT HEAD =          72.3965
               WELLS =   153456032.0000                 WELLS =       30000.0000
    INST. IB STORAGE =    35445036.0000      INST. IB STORAGE =        5379.6431
    DELAY IB STORAGE =    79757552.0000      DELAY IB STORAGE =       16192.7266

            TOTAL IN =   293685344.0000              TOTAL IN =       55662.0156

          OUT:                                     OUT:
          ----                                     ----
             STORAGE =           0.0000               STORAGE =           0.0000
       CONSTANT HEAD =   140259424.0000         CONSTANT HEAD =       25662.0801
               WELLS =   153426032.0000                 WELLS =       30000.0000
    INST. IB STORAGE =           0.0000      INST. IB STORAGE =           0.0000
    DELAY IB STORAGE =           0.0000      DELAY IB STORAGE =           0.0000

           TOTAL OUT =   293685440.0000             TOTAL OUT =       55662.0781

            IN - OUT =         -96.0000              IN - OUT =      -6.2500E-02

 PERCENT DISCREPANCY =           0.00     PERCENT DISCREPANCY =           0.00






          TIME SUMMARY AT END OF TIME STEP   6 IN STRESS PERIOD   15
                    SECONDS     MINUTES      HOURS       DAYS        YEARS
                    -----------------------------------------------------------
   TIME STEP LENGTH 9.18681E+06 1.53113E+05  2551.9      106.33     0.29111    
 STRESS PERIOD TIME 3.15619E+07 5.26032E+05  8767.2      365.30      1.0001    
         TOTAL TIME 4.41953E+08 7.36589E+06 1.22765E+05  5115.2      14.005    
1

                               VOLUMETRIC BUDGET FOR SYSTEMS OF DELAY INTERBEDS
                                          AT END OF TIME STEP  6 IN STRESS PERIOD 15

          |   C U M U L A T I V E   V O L U M E S   L**3           | R A T E S   F O R  T H I S  T I M E  S T E P   L**3/T  |
   SYSTEM |    CHANGE IN     BOUNDARY                    PERCENT   |    CHANGE IN     BOUNDARY                    PERCENT   |
   NUMBER |     STORAGE        FLOW           SUM      DISCREPANCY |     STORAGE        FLOW           SUM      DISCREPANCY |
  --------|--------------------------------------------------------|--------------------------------------------------------|
      1     62188.        -62188.       -0.78125E-02   -0.12563E-04     10.579        -10.579        0.95367E-06    0.90151E-05
      2    0.79695E+08   -0.79695E+08    -8.0000       -0.10038E-04     16182.        -16182.        0.48828E-02    0.30174E-04
  --------|--------------------------------------------------------|--------------------------------------------------------|
 TOTALS:    0.79758E+08   -0.79758E+08    -8.0000       -0.10030E-04     16193.        -16193.        0.48828E-02    0.30154E-04
1
                            STRESS PERIOD NO.   16, LENGTH =   365.3000    
                            -----------------------------------------------

                              NUMBER OF TIME STEPS =     6

                               MULTIPLIER FOR DELT =     1.300

                            INITIAL TIME STEP SIZE =   28.63744    

 REUSING NON-PARAMETER WELLS FROM LAST STRESS PERIOD

     14 WELLS
 
 SOLVING FOR HEAD 

    44 ITERATIONS FOR TIME STEP   1 IN STRESS PERIOD   16

 MAXIMUM HEAD CHANGE FOR EACH ITERATION:

    HEAD CHANGE   HEAD CHANGE   HEAD CHANGE   HEAD CHANGE   HEAD CHANGE
  LAYER,ROW,COL LAYER,ROW,COL LAYER,ROW,COL LAYER,ROW,COL LAYER,ROW,COL
 ----------------------------------------------------------------------
      1.566         4.154         2.570        -1.404        -2.954    
  (  3,  2, 10) (  3,  1, 10) (  3,  3,  4) (  3,  1,  4) (  3,  1,  1)
    -0.2868       -0.7144        -1.589        -1.168        0.8319    
  (  3,  1, 10) (  3,  1,  1) (  3,  1, 10) (  3,  3,  1) (  3,  1,  1)
    -0.7164E-01    0.7883E-02   -0.5556E-02   -0.3447E-02   -0.1862E-02
  (  2,  7,  1) (  2,  2,  1) (  3,  2,  8) (  3,  1,  1) (  3,  2,  5)
    -0.1626E-02    0.7923E-03   -0.6663E-03    0.1344E-02    0.5303E-03
  (  3,  1,  5) (  3,  8, 10) (  3,  4,  3) (  3,  6, 10) (  3,  9,  2)
     0.1286E-02    0.1313E-02    0.1570E-02    0.2426E-02    0.1569E-02
  (  3,  7, 10) (  3,  2,  2) (  3,  8, 10) (  3,  2, 10) (  3,  1,  9)
     0.1077E-02    0.1036E-02    0.7134E-03    0.5045E-03    0.3771E-03
  (  3,  1, 10) (  3,  2,  2) (  3,  1,  8) (  3,  1,  9) (  3,  1,  8)
     0.2518E-03    0.2500E-03    0.1704E-03    0.1220E-03    0.9190E-04
  (  3,  1,  1) (  3,  2,  2) (  3,  2,  2) (  3,  1,  7) (  3,  1,  9)
     0.6221E-04    0.6002E-04    0.4149E-04    0.3003E-04    0.2222E-04
  (  3,  1, 10) (  3,  2,  2) (  3,  1,  7) (  3,  1,  9) (  3,  1,  8)
     0.1466E-04    0.1425E-04    0.1056E-04    0.3615E-05
  (  3,  1,  7) (  3,  1,  8) (  3,  1,  1) (  3,  1,  1)


 OUTPUT CONTROL FOR STRESS PERIOD   16   TIME STEP   1
    SAVE HEAD FOR ALL LAYERS

 HEAD WILL BE SAVED ON UNIT   21 AT END OF TIME STEP   1, STRESS PERIOD   16
 
 SOLVING FOR HEAD 
    41 ITERATIONS FOR TIME STEP   2 IN STRESS PERIOD   16

 MAXIMUM HEAD CHANGE FOR EACH ITERATION:

    HEAD CHANGE   HEAD CHANGE   HEAD CHANGE   HEAD CHANGE   HEAD CHANGE
  LAYER,ROW,COL LAYER,ROW,COL LAYER,ROW,COL LAYER,ROW,COL LAYER,ROW,COL
 ----------------------------------------------------------------------
      1.160         3.525         2.616        -1.237        -3.053    
  (  3,  2,  1) (  3,  1, 10) (  3,  2,  1) (  3,  1,  7) (  3,  1,  1)
    -0.2270       -0.5961        -1.437        0.2602       -0.3301E-01
  (  3,  1, 10) (  3,  1,  1) (  3,  1, 10) (  3, 10,  1) (  2,  1,  1)
    -0.6385E-01   -0.9687E-02   -0.2483E-02   -0.2016E-02   -0.2023E-02
  (  2,  7,  1) (  2,  1,  2) (  3,  5,  5) (  3,  2,  6) (  3,  3,  8)
     0.1311E-02    0.8000E-03    0.2373E-02    0.1214E-02    0.2882E-02
  (  3, 10, 10) (  3,  9,  7) (  3,  1, 10) (  3, 10, 10) (  3,  1, 10)
     0.1319E-02    0.2759E-02    0.2500E-02    0.1740E-02    0.1266E-02
  (  3, 10, 10) (  3,  2,  2) (  3,  2,  1) (  3,  2,  1) (  3,  2,  1)
     0.7944E-03    0.8756E-03    0.5897E-03    0.3972E-03    0.2941E-03
  (  3,  1, 10) (  3,  2,  2) (  3,  2,  3) (  3,  2,  1) (  3,  2,  1)
     0.1819E-03    0.2032E-03    0.1362E-03    0.9194E-04    0.6755E-04
  (  3,  1,  1) (  3,  2,  2) (  3,  2,  1) (  3,  2,  1) (  3,  2,  1)
     0.4056E-04    0.4585E-04    0.3116E-04    0.2127E-04    0.1546E-04
  (  3,  1, 10) (  3,  2,  2) (  3,  2,  2) (  3,  3,  1) (  3,  2,  3)
     0.9132E-05
  (  3,  1,  1)


 OUTPUT CONTROL FOR STRESS PERIOD   16   TIME STEP   2
    SAVE HEAD FOR ALL LAYERS

 HEAD WILL BE SAVED ON UNIT   21 AT END OF TIME STEP   2, STRESS PERIOD   16
 
 SOLVING FOR HEAD 
    40 ITERATIONS FOR TIME STEP   3 IN STRESS PERIOD   16

 MAXIMUM HEAD CHANGE FOR EACH ITERATION:

    HEAD CHANGE   HEAD CHANGE   HEAD CHANGE   HEAD CHANGE   HEAD CHANGE
  LAYER,ROW,COL LAYER,ROW,COL LAYER,ROW,COL LAYER,ROW,COL LAYER,ROW,COL
 ----------------------------------------------------------------------
      1.239         2.593         2.483        -1.028        -3.153    
  (  3,  1,  6) (  3,  1, 10) (  3,  1,  1) (  3,  2, 10) (  3,  1,  1)
     0.1845       -0.4185        -1.110        0.5042        0.3988E-01
  (  2,  5,  1) (  3,  1,  1) (  3,  1, 10) (  3, 10,  1) (  2, 10,  9)
    -0.5187E-01   -0.1198E-01   -0.5891E-02   -0.2247E-02   -0.2162E-02
  (  2,  7,  1) (  2,  1,  2) (  3,  3,  7) (  3,  4,  7) (  3,  3,  6)
     0.1882E-02    0.1902E-02    0.1979E-02    0.2557E-02    0.3459E-02
  (  3,  1, 10) (  3, 10, 10) (  3,  1,  3) (  3,  7,  1) (  3,  1,  3)
     0.1946E-02    0.2409E-02    0.1647E-02    0.1061E-02    0.7438E-03
  (  3,  1,  1) (  3,  2,  2) (  3,  3,  3) (  3,  1,  4) (  3,  1,  6)
     0.4434E-03    0.5136E-03    0.3598E-03    0.2273E-03    0.1660E-03
  (  3,  1, 10) (  3,  3,  3) (  3,  3,  3) (  3,  3,  3) (  3,  1,  4)
     0.9124E-04    0.1126E-03    0.7886E-04    0.5012E-04    0.3621E-04
  (  3,  1,  5) (  3,  3,  3) (  3,  3,  3) (  3,  1,  4) (  3,  3,  3)
     0.2080E-04    0.2489E-04    0.1744E-04    0.1127E-04    0.5917E-05
  (  3,  1,  5) (  3,  3,  3) (  3,  3,  3) (  3,  3,  3) (  3,  1,  5)


 OUTPUT CONTROL FOR STRESS PERIOD   16   TIME STEP   3
    SAVE HEAD FOR ALL LAYERS

 HEAD WILL BE SAVED ON UNIT   21 AT END OF TIME STEP   3, STRESS PERIOD   16
 
 SOLVING FOR HEAD 
    36 ITERATIONS FOR TIME STEP   4 IN STRESS PERIOD   16

 MAXIMUM HEAD CHANGE FOR EACH ITERATION:

    HEAD CHANGE   HEAD CHANGE   HEAD CHANGE   HEAD CHANGE   HEAD CHANGE
  LAYER,ROW,COL LAYER,ROW,COL LAYER,ROW,COL LAYER,ROW,COL LAYER,ROW,COL
 ----------------------------------------------------------------------
     0.9851         2.047         1.624       -0.9471        -3.007    
  (  3,  1,  5) (  3,  1, 10) (  3,  2,  2) (  3,  1,  7) (  3,  1,  1)
     0.1982        0.7610E-01   -0.2565E-01   -0.1709E-01   -0.1269E-01
  (  3, 10, 10) (  3,  9,  3) (  3,  2,  7) (  3,  2,  7) (  3,  3,  7)
    -0.5528E-02   -0.7879E-02   -0.2943E-02   -0.2523E-02    0.2314E-02
  (  3,  1, 10) (  3,  3,  7) (  3,  3,  7) (  3,  3,  7) (  3,  1,  1)
     0.1908E-02    0.3761E-02    0.3092E-02    0.2028E-02    0.1442E-02
  (  3, 10,  1) (  3,  1,  9) (  3,  1,  3) (  3,  1,  1) (  3,  1,  1)
     0.8114E-03    0.9225E-03    0.6975E-03    0.4145E-03    0.2917E-03
  (  3,  1,  1) (  3,  1,  3) (  3,  1,  1) (  3,  1,  1) (  3,  1,  1)
     0.1664E-03    0.2010E-03    0.1349E-03    0.8744E-04    0.6235E-04
  (  3,  1,  1) (  3,  1,  1) (  3,  1,  4) (  3,  1,  1) (  3,  1,  1)
     0.3647E-04    0.3909E-04    0.2935E-04    0.1771E-04    0.1325E-04
  (  3,  1,  1) (  3,  1,  2) (  3,  1,  1) (  3,  1,  1) (  3,  1,  1)
     0.7772E-05
  (  3,  1,  1)


 OUTPUT CONTROL FOR STRESS PERIOD   16   TIME STEP   4
    SAVE HEAD FOR ALL LAYERS

 HEAD WILL BE SAVED ON UNIT   21 AT END OF TIME STEP   4, STRESS PERIOD   16
 
 SOLVING FOR HEAD 
    31 ITERATIONS FOR TIME STEP   5 IN STRESS PERIOD   16

 MAXIMUM HEAD CHANGE FOR EACH ITERATION:

    HEAD CHANGE   HEAD CHANGE   HEAD CHANGE   HEAD CHANGE   HEAD CHANGE
  LAYER,ROW,COL LAYER,ROW,COL LAYER,ROW,COL LAYER,ROW,COL LAYER,ROW,COL
 ----------------------------------------------------------------------
     0.6208         1.123         1.129       -0.9427        -2.683    
  (  3,  1, 10) (  3,  1,  9) (  3,  1,  1) (  3,  1,  8) (  3,  1,  1)
     0.7176        0.4238        0.1271        0.6559E-01   -0.4408E-01
  (  3, 10,  1) (  3,  9,  3) (  2,  1,  8) (  2, 10,  1) (  2, 10, 10)
     0.7181E-01    0.1247E-01   -0.6552E-02   -0.3516E-02   -0.2369E-02
  (  2,  6,  1) (  2,  1,  2) (  3,  9,  5) (  3,  9,  5) (  3,  9,  4)
    -0.2235E-02   -0.1630E-02   -0.1222E-02   -0.6723E-03   -0.4436E-03
  (  2,  6,  1) (  3,  9,  4) (  3,  9,  4) (  3,  9,  4) (  3,  9,  5)
    -0.1921E-03   -0.3034E-03   -0.2339E-03   -0.1277E-03   -0.8683E-04
  (  3, 10, 10) (  3,  9,  3) (  3,  9,  4) (  3,  9,  5) (  3,  9,  4)
    -0.3594E-04   -0.5928E-04   -0.4473E-04   -0.2521E-04   -0.1687E-04
  (  3,  9,  5) (  3,  9,  4) (  3,  9,  4) (  3,  9,  4) (  3,  9,  4)
    -0.7501E-05
  (  3,  9,  4)


 OUTPUT CONTROL FOR STRESS PERIOD   16   TIME STEP   5
    SAVE HEAD FOR ALL LAYERS

 HEAD WILL BE SAVED ON UNIT   21 AT END OF TIME STEP   5, STRESS PERIOD   16
 
 SOLVING FOR HEAD 
    32 ITERATIONS FOR TIME STEP   6 IN STRESS PERIOD   16

 MAXIMUM HEAD CHANGE FOR EACH ITERATION:

    HEAD CHANGE   HEAD CHANGE   HEAD CHANGE   HEAD CHANGE   HEAD CHANGE
  LAYER,ROW,COL LAYER,ROW,COL LAYER,ROW,COL LAYER,ROW,COL LAYER,ROW,COL
 ----------------------------------------------------------------------
     0.4384        0.6183        0.5279        -1.079        -1.212    
  (  3,  1, 10) (  3,  2, 10) (  3,  1,  1) (  3,  1, 10) (  3,  1,  1)
     0.5047        0.2977        0.8185E-01    0.2714E-01   -0.2600E-01
  (  3,  1, 10) (  3,  2,  2) (  2,  1,  9) (  2, 10,  1) (  2, 10, 10)
     0.2630E-01   -0.1160E-01   -0.9406E-02   -0.4779E-02   -0.2905E-02
  (  2,  7,  1) (  3,  2,  7) (  3,  3,  6) (  3,  3,  6) (  3,  3,  6)
    -0.2526E-02   -0.1943E-02   -0.1656E-02   -0.8291E-03   -0.5249E-03
  (  2,  7,  1) (  3,  3,  6) (  3,  3,  6) (  3,  3,  6) (  3,  3,  6)
    -0.4046E-03   -0.3472E-03   -0.2901E-03   -0.1513E-03   -0.9410E-04
  (  2,  8,  1) (  3,  3,  6) (  3,  3,  6) (  3,  3,  6) (  3,  3,  6)
    -0.4262E-04   -0.6206E-04   -0.5322E-04   -0.2792E-04   -0.1735E-04
  (  2,  8,  1) (  3,  3,  6) (  3,  3,  6) (  3,  3,  6) (  3,  3,  6)
    -0.1155E-04   -0.3893E-05
  (  2,  8,  1) (  3,  2,  7)


 OUTPUT CONTROL FOR STRESS PERIOD   16   TIME STEP   6
    PRINT BUDGET
    PRINT HEAD FOR ALL LAYERS
    SAVE HEAD FOR ALL LAYERS
    SAVE DRAWDOWN FOR ALL LAYERS
1
              HEAD IN LAYER   1 AT END OF TIME STEP   6 IN STRESS PERIOD   16
  ---------------------------------------------------------------------------

           1       2       3       4       5       6       7       8       9      10
 ...................................................................................
   1    20.97   20.62   19.95   19.53   19.33   19.33   19.53   19.95   20.61   20.96
   2    19.95   19.44   19.02   18.72   18.57   18.56   18.71   19.01   19.43   19.94
   3    18.48   17.99   17.62   17.37   17.24   17.24   17.36   17.61   17.97   18.47
   4    16.48   16.05   15.75   15.56   15.46   15.46   15.55   15.74   16.04   16.47
   5    13.65   13.56   13.46   13.38   13.33   13.33   13.37   13.45   13.55   13.64
   6    11.15   11.12   11.08   11.05   11.02   11.02   11.04   11.08   11.12   11.14
   7     8.73    8.71    8.67    8.64    8.62    8.62    8.64    8.67    8.71    8.73
   8     6.38    6.33    6.24    6.15    6.10    6.10    6.15    6.24    6.33    6.38
   9     4.22    4.06    3.79    3.47    3.34    3.34    3.47    3.78    4.06    4.22
  10     2.66    2.28    1.44    0.00    0.00    0.00    0.00    1.44    2.27    2.66
1
              HEAD IN LAYER   2 AT END OF TIME STEP   6 IN STRESS PERIOD   16
  ---------------------------------------------------------------------------

           1       2       3       4       5       6       7       8       9      10
 ...................................................................................
   1    -1.29   -1.27   -1.27   -1.28   -1.29   -1.31   -1.33   -1.35   -1.38   -1.41
   2    -1.40   -0.29   -0.56   -1.04   -1.53   -1.90   -1.87   -1.54   -1.22   -1.59
   3    -1.55   -0.87   -1.33   -2.14   -3.30   -4.87   -4.48   -3.15   -2.22   -1.79
   4    -1.74   -1.25   -1.62   -2.22   -2.97   -3.82   -3.67   -2.96   -2.35   -1.99
   5    -1.96   -1.58   -1.73   -2.00   -2.29   -2.51   -2.54   -2.40   -2.25   -2.19
   6    -2.19   -1.89   -1.94   -2.06   -2.17   -2.26   -2.29   -2.28   -2.27   -2.39
   7    -2.43   -2.32   -2.35   -2.41   -2.47   -2.51   -2.53   -2.53   -2.53   -2.59
   8    -2.68   -2.89   -2.98   -3.05   -3.10   -3.12   -3.11   -3.07   -3.01   -2.80
   9    -2.92   -3.56   -3.78   -3.94   -4.01   -4.03   -3.97   -3.83   -3.63   -3.00
  10    -3.14   -3.19   -3.23   -3.26   -3.28   -3.29   -3.28   -3.26   -3.22   -3.19
1
              HEAD IN LAYER   3 AT END OF TIME STEP   6 IN STRESS PERIOD   16
  ---------------------------------------------------------------------------

           1       2       3       4       5       6       7       8       9      10
 ...................................................................................
   1   -19.23  -19.40  -19.71  -20.12  -20.56  -20.90  -21.06  -21.06  -20.98  -20.92
   2   -19.31  -19.57  -20.07  -20.80  -21.67  -22.44  -22.52  -22.11  -21.70  -21.47
   3   -19.10  -19.49  -20.31  -21.71  -23.94  -27.54  -26.69  -23.99  -22.52  -21.86
   4   -18.07  -18.38  -19.03  -20.04  -21.47  -23.33  -23.07  -21.72  -20.84  -20.41
   5   -16.45  -16.63  -16.96  -17.43  -17.96  -18.41  -18.50  -18.31  -18.10  -17.96
   6   -14.77  -14.85  -15.00  -15.20  -15.42  -15.59  -15.68  -15.68  -15.66  -15.63
   7   -13.31  -13.34  -13.41  -13.50  -13.60  -13.68  -13.74  -13.77  -13.78  -13.78
   8   -12.19  -12.21  -12.24  -12.29  -12.33  -12.37  -12.41  -12.43  -12.45  -12.45
   9   -11.45  -11.46  -11.48  -11.50  -11.53  -11.55  -11.57  -11.59  -11.60  -11.60
  10   -11.08  -11.08  -11.10  -11.11  -11.13  -11.15  -11.16  -11.17  -11.18  -11.19

 HEAD WILL BE SAVED ON UNIT   21 AT END OF TIME STEP   6, STRESS PERIOD   16

 DRAWDOWN WILL BE SAVED ON UNIT   22 AT END OF TIME STEP   6, STRESS PERIOD   16
1
  VOLUMETRIC BUDGET FOR ENTIRE MODEL AT END OF TIME STEP  6 IN STRESS PERIOD  16
  ------------------------------------------------------------------------------

     CUMULATIVE VOLUMES      L**3       RATES FOR THIS TIME STEP      L**3/T
     ------------------                 ------------------------

           IN:                                      IN:
           ---                                      ---
             STORAGE =    26320682.0000               STORAGE =        3933.1455
       CONSTANT HEAD =      182871.4219         CONSTANT HEAD =          78.6949
               WELLS =   164415024.0000                 WELLS =       30000.0000
    INST. IB STORAGE =    37402600.0000      INST. IB STORAGE =        5341.0200
    DELAY IB STORAGE =    85650024.0000      DELAY IB STORAGE =       16092.7646

            TOTAL IN =   313971200.0000              TOTAL IN =       55445.6250

          OUT:                                     OUT:
          ----                                     ----
             STORAGE =           0.0000               STORAGE =           0.0000
       CONSTANT HEAD =   149586288.0000         CONSTANT HEAD =       25445.6973
               WELLS =   164385024.0000                 WELLS =       30000.0000
    INST. IB STORAGE =           0.0000      INST. IB STORAGE =           0.0000
    DELAY IB STORAGE =           0.0000      DELAY IB STORAGE =           0.0000

           TOTAL OUT =   313971328.0000             TOTAL OUT =       55445.6953

            IN - OUT =        -128.0000              IN - OUT =      -7.0313E-02

 PERCENT DISCREPANCY =           0.00     PERCENT DISCREPANCY =           0.00






          TIME SUMMARY AT END OF TIME STEP   6 IN STRESS PERIOD   16
                    SECONDS     MINUTES      HOURS       DAYS        YEARS
                    -----------------------------------------------------------
   TIME STEP LENGTH 9.18681E+06 1.53113E+05  2551.9      106.33     0.29111    
 STRESS PERIOD TIME 3.15619E+07 5.26032E+05  8767.2      365.30      1.0001    
         TOTAL TIME 4.73515E+08 7.89192E+06 1.31532E+05  5480.5      15.005    
1

                               VOLUMETRIC BUDGET FOR SYSTEMS OF DELAY INTERBEDS
                                          AT END OF TIME STEP  6 IN STRESS PERIOD 16

          |   C U M U L A T I V E   V O L U M E S   L**3           | R A T E S   F O R  T H I S  T I M E  S T E P   L**3/T  |
   SYSTEM |    CHANGE IN     BOUNDARY                    PERCENT   |    CHANGE IN     BOUNDARY                    PERCENT   |
   NUMBER |     STORAGE        FLOW           SUM      DISCREPANCY |     STORAGE        FLOW           SUM      DISCREPANCY |
  --------|--------------------------------------------------------|--------------------------------------------------------|
      1     66021.        -66021.       -0.78125E-02   -0.11833E-04     10.417        -10.417         0.0000         0.0000    
      2    0.85584E+08   -0.85584E+08    -8.0000       -0.93475E-05     16082.        -16082.        0.19531E-02    0.12145E-04
  --------|--------------------------------------------------------|--------------------------------------------------------|
 TOTALS:    0.85650E+08   -0.85650E+08    -8.0000       -0.93403E-05     16093.        -16093.        0.19531E-02    0.12137E-04
1
                            STRESS PERIOD NO.   17, LENGTH =   365.3000    
                            -----------------------------------------------

                              NUMBER OF TIME STEPS =     6

                               MULTIPLIER FOR DELT =     1.300

                            INITIAL TIME STEP SIZE =   28.63744    

 REUSING NON-PARAMETER WELLS FROM LAST STRESS PERIOD

     14 WELLS
 
 SOLVING FOR HEAD 

    43 ITERATIONS FOR TIME STEP   1 IN STRESS PERIOD   17

 MAXIMUM HEAD CHANGE FOR EACH ITERATION:

    HEAD CHANGE   HEAD CHANGE   HEAD CHANGE   HEAD CHANGE   HEAD CHANGE
  LAYER,ROW,COL LAYER,ROW,COL LAYER,ROW,COL LAYER,ROW,COL LAYER,ROW,COL
 ----------------------------------------------------------------------
      2.176         3.446         2.628        -1.485        -2.927    
  (  3,  1,  1) (  3,  2,  8) (  3,  2,  2) (  3,  1,  9) (  3,  1,  1)
    -0.2758       -0.6954        -1.545        -1.145        0.8250    
  (  3,  1, 10) (  3,  1,  1) (  3,  1, 10) (  3,  3,  1) (  3,  8, 10)
    -0.6684E-01   -0.8124E-02   -0.5304E-02   -0.4140E-02   -0.1853E-02
  (  2,  7,  1) (  3,  3,  7) (  3,  2,  8) (  3,  3,  7) (  3,  2,  1)
    -0.1863E-02   -0.1015E-02   -0.8634E-03    0.1354E-02    0.7912E-03
  (  3,  3,  6) (  3,  3,  6) (  3,  3,  6) (  3,  6,  8) (  3, 10,  4)
     0.1308E-02    0.1322E-02    0.1681E-02    0.2465E-02    0.1509E-02
  (  3,  7, 10) (  3,  1, 10) (  3,  9,  5) (  3,  1, 10) (  3,  1,  6)
     0.1020E-02    0.1009E-02    0.6969E-03    0.4921E-03    0.3692E-03
  (  3,  1, 10) (  3,  2,  2) (  3,  1,  6) (  3,  1,  7) (  3,  1,  6)
     0.2381E-03    0.2458E-03    0.1667E-03    0.1194E-03    0.8893E-04
  (  3,  1,  7) (  3,  2,  2) (  3,  2,  1) (  3,  1,  6) (  3,  1,  7)
     0.5852E-04    0.5862E-04    0.4087E-04    0.2834E-04    0.2212E-04
  (  3,  1, 10) (  3,  2,  2) (  3,  1,  5) (  3,  2,  1) (  3,  1,  6)
     0.1394E-04    0.1467E-04    0.9834E-05
  (  3,  1,  7) (  3,  2,  2) (  3,  2,  2)


 OUTPUT CONTROL FOR STRESS PERIOD   17   TIME STEP   1
    SAVE HEAD FOR ALL LAYERS

 HEAD WILL BE SAVED ON UNIT   21 AT END OF TIME STEP   1, STRESS PERIOD   17
 
 SOLVING FOR HEAD 
    41 ITERATIONS FOR TIME STEP   2 IN STRESS PERIOD   17

 MAXIMUM HEAD CHANGE FOR EACH ITERATION:

    HEAD CHANGE   HEAD CHANGE   HEAD CHANGE   HEAD CHANGE   HEAD CHANGE
  LAYER,ROW,COL LAYER,ROW,COL LAYER,ROW,COL LAYER,ROW,COL LAYER,ROW,COL
 ----------------------------------------------------------------------
      1.492         2.911         2.680        -1.251        -3.116    
  (  3,  1,  7) (  3,  1,  9) (  3,  1,  1) (  3,  1,  5) (  3,  1,  1)
    -0.2089       -0.5480        -1.367        0.2502       -0.3477E-01
  (  3,  1, 10) (  3,  1,  1) (  3,  1, 10) (  3, 10,  1) (  2,  1,  1)
    -0.5849E-01   -0.1028E-01   -0.2727E-02   -0.1726E-02   -0.1884E-02
  (  2,  7,  1) (  2,  1,  2) (  3,  4,  5) (  3,  1,  1) (  3,  3,  5)
     0.1269E-02    0.7244E-03    0.2273E-02    0.1028E-02    0.2724E-02
  (  3, 10,  1) (  3,  9,  8) (  3,  5,  1) (  3, 10, 10) (  3,  2,  2)
     0.1242E-02    0.2647E-02    0.2348E-02    0.1699E-02    0.1255E-02
  (  3,  2,  7) (  3,  1, 10) (  3,  2,  8) (  3,  2,  7) (  3,  2,  7)
     0.7867E-03    0.8511E-03    0.5862E-03    0.3977E-03    0.2892E-03
  (  3,  1, 10) (  3,  2,  7) (  3,  2,  7) (  3,  2,  7) (  3,  2,  7)
     0.1717E-03    0.1991E-03    0.1364E-03    0.9222E-04    0.6836E-04
  (  3,  1,  1) (  3,  2,  7) (  3,  2,  7) (  3,  2,  7) (  3,  2,  7)
     0.4134E-04    0.4635E-04    0.3102E-04    0.2259E-04    0.1559E-04
  (  3,  1, 10) (  3,  2,  7) (  3,  2,  7) (  3,  2,  7) (  3,  2,  7)
     0.9599E-05
  (  3,  2,  7)


 OUTPUT CONTROL FOR STRESS PERIOD   17   TIME STEP   2
    SAVE HEAD FOR ALL LAYERS

 HEAD WILL BE SAVED ON UNIT   21 AT END OF TIME STEP   2, STRESS PERIOD   17
 
 SOLVING FOR HEAD 
    40 ITERATIONS FOR TIME STEP   3 IN STRESS PERIOD   17

 MAXIMUM HEAD CHANGE FOR EACH ITERATION:

    HEAD CHANGE   HEAD CHANGE   HEAD CHANGE   HEAD CHANGE   HEAD CHANGE
  LAYER,ROW,COL LAYER,ROW,COL LAYER,ROW,COL LAYER,ROW,COL LAYER,ROW,COL
 ----------------------------------------------------------------------
      1.166         2.361         2.123       -0.9756        -3.079    
  (  3,  2, 10) (  3,  1,  9) (  3,  1,  1) (  3,  1,  4) (  3,  1,  1)
     0.1722       -0.3990        -1.066        0.5026        0.3973E-01
  (  2,  5,  1) (  3,  1,  1) (  3,  1, 10) (  3, 10,  1) (  2, 10, 10)
    -0.4757E-01   -0.1296E-01   -0.4901E-02   -0.2251E-02   -0.1701E-02
  (  2,  7,  1) (  2,  1,  2) (  3,  3,  5) (  3,  5, 10) (  3,  3,  6)
     0.1407E-02    0.1818E-02    0.1998E-02    0.2500E-02    0.3266E-02
  (  3,  1,  6) (  3, 10,  5) (  3,  1, 10) (  3,  8, 10) (  3,  1, 10)
     0.2076E-02    0.2276E-02    0.1642E-02    0.1064E-02    0.7686E-03
  (  3,  1,  1) (  3,  1,  2) (  3,  1,  2) (  3,  1,  2) (  3,  1,  2)
     0.4572E-03    0.5108E-03    0.3495E-03    0.2355E-03    0.1723E-03
  (  3,  1,  2) (  3,  1,  2) (  3,  1,  2) (  3,  1,  2) (  3,  1,  2)
     0.1009E-03    0.1107E-03    0.7986E-04    0.5250E-04    0.3793E-04
  (  3,  1,  2) (  3,  1,  2) (  3,  1,  2) (  3,  1,  2) (  3,  1,  2)
     0.2370E-04    0.2535E-04    0.1701E-04    0.1209E-04    0.5773E-05
  (  3,  1,  2) (  3,  1,  2) (  3,  1,  2) (  3,  1,  2) (  3,  1,  2)


 OUTPUT CONTROL FOR STRESS PERIOD   17   TIME STEP   3
    SAVE HEAD FOR ALL LAYERS

 HEAD WILL BE SAVED ON UNIT   21 AT END OF TIME STEP   3, STRESS PERIOD   17
 
 SOLVING FOR HEAD 
    36 ITERATIONS FOR TIME STEP   4 IN STRESS PERIOD   17

 MAXIMUM HEAD CHANGE FOR EACH ITERATION:

    HEAD CHANGE   HEAD CHANGE   HEAD CHANGE   HEAD CHANGE   HEAD CHANGE
  LAYER,ROW,COL LAYER,ROW,COL LAYER,ROW,COL LAYER,ROW,COL LAYER,ROW,COL
 ----------------------------------------------------------------------
     0.7885         1.906         1.714       -0.8910        -3.001    
  (  3,  2, 10) (  3,  1, 10) (  3,  2,  3) (  3,  2, 10) (  3,  1,  1)
     0.1676        0.5733E-01   -0.2410E-01   -0.1655E-01   -0.1237E-01
  (  2,  5,  1) (  3,  9,  7) (  3,  1,  7) (  3,  2,  7) (  3,  3,  6)
    -0.5186E-02   -0.7400E-02   -0.2706E-02   -0.2314E-02    0.2283E-02
  (  2,  6,  1) (  3,  3,  7) (  3,  3,  7) (  3,  3,  6) (  3,  1,  3)
     0.1869E-02    0.3573E-02    0.2892E-02    0.1830E-02    0.1323E-02
  (  3, 10,  1) (  3,  1, 10) (  3,  1,  4) (  3,  1,  3) (  3,  1,  2)
     0.6739E-03    0.9000E-03    0.6189E-03    0.3837E-03    0.2627E-03
  (  3,  1,  1) (  3,  2,  2) (  3,  1,  2) (  3,  1,  2) (  3,  2, 10)
     0.1407E-03    0.1777E-03    0.1268E-03    0.7695E-04    0.5632E-04
  (  3,  1,  3) (  3,  1,  1) (  3,  2,  2) (  3,  2, 10) (  3,  1,  2)
     0.3096E-04    0.3663E-04    0.2587E-04    0.1670E-04    0.1176E-04
  (  2,  7,  1) (  3,  2,  2) (  3,  2, 10) (  3,  1,  2) (  3,  2, 10)
     0.5864E-05
  (  3,  1,  3)


 OUTPUT CONTROL FOR STRESS PERIOD   17   TIME STEP   4
    SAVE HEAD FOR ALL LAYERS

 HEAD WILL BE SAVED ON UNIT   21 AT END OF TIME STEP   4, STRESS PERIOD   17
 
 SOLVING FOR HEAD 
    31 ITERATIONS FOR TIME STEP   5 IN STRESS PERIOD   17

 MAXIMUM HEAD CHANGE FOR EACH ITERATION:

    HEAD CHANGE   HEAD CHANGE   HEAD CHANGE   HEAD CHANGE   HEAD CHANGE
  LAYER,ROW,COL LAYER,ROW,COL LAYER,ROW,COL LAYER,ROW,COL LAYER,ROW,COL
 ----------------------------------------------------------------------
     0.5403         1.248         1.090       -0.9386        -2.671    
  (  3,  1,  2) (  3,  1, 10) (  3,  2,  1) (  3,  2, 10) (  3,  1,  1)
     0.7369        0.4369        0.1334        0.6949E-01   -0.4670E-01
  (  3, 10,  1) (  3,  9,  3) (  2,  1,  8) (  2, 10,  1) (  2, 10, 10)
     0.7539E-01    0.1331E-01   -0.6794E-02   -0.3623E-02   -0.2459E-02
  (  2,  6,  1) (  2,  1,  2) (  3,  9,  5) (  3,  9,  5) (  3,  9,  3)
    -0.2271E-02   -0.1685E-02   -0.1262E-02   -0.6956E-03   -0.4540E-03
  (  2,  6,  1) (  3,  9,  4) (  3,  9,  3) (  3,  9,  4) (  3,  9,  5)
    -0.1932E-03   -0.3130E-03   -0.2410E-03   -0.1301E-03   -0.8896E-04
  (  3, 10, 10) (  3,  9,  3) (  3,  9,  4) (  3,  9,  5) (  3,  9,  4)
    -0.3665E-04   -0.6042E-04   -0.4538E-04   -0.2590E-04   -0.1684E-04
  (  3,  9,  6) (  3,  9,  4) (  3,  9,  4) (  3,  9,  4) (  3,  9,  6)
    -0.7933E-05
  (  3,  9,  4)


 OUTPUT CONTROL FOR STRESS PERIOD   17   TIME STEP   5
    SAVE HEAD FOR ALL LAYERS

 HEAD WILL BE SAVED ON UNIT   21 AT END OF TIME STEP   5, STRESS PERIOD   17
 
 SOLVING FOR HEAD 
    32 ITERATIONS FOR TIME STEP   6 IN STRESS PERIOD   17

 MAXIMUM HEAD CHANGE FOR EACH ITERATION:

    HEAD CHANGE   HEAD CHANGE   HEAD CHANGE   HEAD CHANGE   HEAD CHANGE
  LAYER,ROW,COL LAYER,ROW,COL LAYER,ROW,COL LAYER,ROW,COL LAYER,ROW,COL
 ----------------------------------------------------------------------
     0.3736        0.7319        0.5277        -1.080        -1.320    
  (  3,  1,  3) (  3,  1, 10) (  3,  1,  1) (  3,  1, 10) (  3,  1,  1)
     0.5828        0.3581        0.1029        0.3736E-01   -0.3315E-01
  (  3,  1, 10) (  3,  2,  2) (  2,  1,  9) (  2, 10,  1) (  2, 10, 10)
     0.3258E-01   -0.1301E-01   -0.1069E-01   -0.5368E-02   -0.3241E-02
  (  2,  7,  1) (  3,  2,  7) (  3,  3,  5) (  3,  3,  6) (  3,  3,  6)
    -0.2700E-02   -0.2160E-02   -0.1850E-02   -0.9160E-03   -0.5747E-03
  (  2,  7,  1) (  3,  3,  6) (  3,  3,  6) (  3,  3,  6) (  3,  3,  6)
    -0.4458E-03   -0.3788E-03   -0.3187E-03   -0.1637E-03   -0.1002E-03
  (  2,  9,  1) (  3,  3,  6) (  3,  3,  6) (  3,  3,  6) (  3,  3,  6)
    -0.4386E-04   -0.6665E-04   -0.5720E-04   -0.2873E-04   -0.1910E-04
  (  2,  8,  1) (  3,  3,  6) (  3,  3,  6) (  3,  3,  6) (  3,  3,  6)
    -0.1246E-04   -0.4327E-05
  (  2,  9,  1) (  3,  2,  6)


 OUTPUT CONTROL FOR STRESS PERIOD   17   TIME STEP   6
    PRINT BUDGET
    PRINT HEAD FOR ALL LAYERS
    SAVE HEAD FOR ALL LAYERS
    SAVE DRAWDOWN FOR ALL LAYERS
1
              HEAD IN LAYER   1 AT END OF TIME STEP   6 IN STRESS PERIOD   17
  ---------------------------------------------------------------------------

           1       2       3       4       5       6       7       8       9      10
 ...................................................................................
   1    20.87   20.52   19.85   19.43   19.23   19.22   19.43   19.85   20.51   20.86
   2    19.85   19.34   18.92   18.62   18.47   18.46   18.61   18.91   19.34   19.84
   3    18.38   17.89   17.52   17.27   17.15   17.14   17.26   17.51   17.88   18.37
   4    16.39   15.96   15.66   15.47   15.37   15.37   15.46   15.65   15.95   16.38
   5    13.57   13.48   13.38   13.29   13.25   13.25   13.29   13.37   13.47   13.56
   6    11.07   11.05   11.01   10.97   10.95   10.95   10.97   11.00   11.04   11.07
   7     8.67    8.65    8.61    8.58    8.56    8.55    8.57    8.61    8.64    8.66
   8     6.33    6.28    6.19    6.10    6.05    6.05    6.10    6.19    6.28    6.33
   9     4.18    4.03    3.76    3.45    3.32    3.32    3.44    3.75    4.03    4.18
  10     2.64    2.26    1.43    0.00    0.00    0.00    0.00    1.43    2.25    2.64
1
              HEAD IN LAYER   2 AT END OF TIME STEP   6 IN STRESS PERIOD   17
  ---------------------------------------------------------------------------

           1       2       3       4       5       6       7       8       9      10
 ...................................................................................
   1    -1.61   -1.60   -1.60   -1.61   -1.62   -1.64   -1.65   -1.68   -1.70   -1.74
   2    -1.72   -0.64   -0.92   -1.40   -1.89   -2.27   -2.23   -1.90   -1.57   -1.91
   3    -1.87   -1.21   -1.68   -2.49   -3.66   -5.22   -4.83   -3.50   -2.57   -2.10
   4    -2.05   -1.58   -1.95   -2.55   -3.31   -4.15   -4.01   -3.30   -2.69   -2.30
   5    -2.26   -1.89   -2.05   -2.32   -2.61   -2.83   -2.85   -2.72   -2.56   -2.49
   6    -2.48   -2.18   -2.23   -2.35   -2.47   -2.55   -2.59   -2.58   -2.56   -2.68
   7    -2.72   -2.59   -2.62   -2.68   -2.74   -2.78   -2.80   -2.80   -2.80   -2.88
   8    -2.96   -3.14   -3.23   -3.30   -3.34   -3.37   -3.36   -3.33   -3.26   -3.08
   9    -3.19   -3.80   -4.01   -4.17   -4.25   -4.26   -4.21   -4.07   -3.87   -3.27
  10    -3.41   -3.45   -3.50   -3.53   -3.55   -3.55   -3.54   -3.52   -3.49   -3.45
1
              HEAD IN LAYER   3 AT END OF TIME STEP   6 IN STRESS PERIOD   17
  ---------------------------------------------------------------------------

           1       2       3       4       5       6       7       8       9      10
 ...................................................................................
   1   -19.86  -20.03  -20.34  -20.75  -21.19  -21.54  -21.70  -21.69  -21.62  -21.56
   2   -19.93  -20.19  -20.70  -21.43  -22.29  -23.07  -23.14  -22.74  -22.33  -22.10
   3   -19.70  -20.09  -20.92  -22.31  -24.54  -28.16  -27.30  -24.60  -23.13  -22.47
   4   -18.64  -18.96  -19.61  -20.62  -22.05  -23.92  -23.65  -22.30  -21.43  -21.00
   5   -17.00  -17.17  -17.51  -17.98  -18.51  -18.96  -19.05  -18.86  -18.65  -18.51
   6   -15.28  -15.36  -15.52  -15.72  -15.93  -16.10  -16.19  -16.20  -16.17  -16.15
   7   -13.78  -13.82  -13.89  -13.98  -14.08  -14.16  -14.22  -14.25  -14.26  -14.27
   8   -12.64  -12.66  -12.69  -12.74  -12.78  -12.83  -12.86  -12.89  -12.90  -12.91
   9   -11.88  -11.89  -11.91  -11.93  -11.96  -11.98  -12.00  -12.02  -12.03  -12.04
  10   -11.50  -11.51  -11.52  -11.53  -11.55  -11.57  -11.58  -11.60  -11.61  -11.61

 HEAD WILL BE SAVED ON UNIT   21 AT END OF TIME STEP   6, STRESS PERIOD   17

 DRAWDOWN WILL BE SAVED ON UNIT   22 AT END OF TIME STEP   6, STRESS PERIOD   17
1
  VOLUMETRIC BUDGET FOR ENTIRE MODEL AT END OF TIME STEP  6 IN STRESS PERIOD  17
  ------------------------------------------------------------------------------

     CUMULATIVE VOLUMES      L**3       RATES FOR THIS TIME STEP      L**3/T
     ------------------                 ------------------------

           IN:                                      IN:
           ---                                      ---
             STORAGE =    27739766.0000               STORAGE =        3852.5969
       CONSTANT HEAD =      212997.5156         CONSTANT HEAD =          84.9961
               WELLS =   175374016.0000                 WELLS =       30000.0000
    INST. IB STORAGE =    39347016.0000      INST. IB STORAGE =        5307.0029
    DELAY IB STORAGE =    91505120.0000      DELAY IB STORAGE =       15988.7773

            TOTAL IN =   334178912.0000              TOTAL IN =       55233.3750

          OUT:                                     OUT:
          ----                                     ----
             STORAGE =           0.0000               STORAGE =           0.0000
       CONSTANT HEAD =   158835024.0000         CONSTANT HEAD =       25233.4258
               WELLS =   175344016.0000                 WELLS =       30000.0000
    INST. IB STORAGE =           0.0000      INST. IB STORAGE =           0.0000
    DELAY IB STORAGE =           0.0000      DELAY IB STORAGE =           0.0000

           TOTAL OUT =   334179040.0000             TOTAL OUT =       55233.4258

            IN - OUT =        -128.0000              IN - OUT =      -5.0781E-02

 PERCENT DISCREPANCY =           0.00     PERCENT DISCREPANCY =           0.00






          TIME SUMMARY AT END OF TIME STEP   6 IN STRESS PERIOD   17
                    SECONDS     MINUTES      HOURS       DAYS        YEARS
                    -----------------------------------------------------------
   TIME STEP LENGTH 9.18681E+06 1.53113E+05  2551.9      106.33     0.29111    
 STRESS PERIOD TIME 3.15619E+07 5.26032E+05  8767.2      365.30      1.0001    
         TOTAL TIME 5.05077E+08 8.41795E+06 1.40299E+05  5845.8      16.005    
1

                               VOLUMETRIC BUDGET FOR SYSTEMS OF DELAY INTERBEDS
                                          AT END OF TIME STEP  6 IN STRESS PERIOD 17

          |   C U M U L A T I V E   V O L U M E S   L**3           | R A T E S   F O R  T H I S  T I M E  S T E P   L**3/T  |
   SYSTEM |    CHANGE IN     BOUNDARY                    PERCENT   |    CHANGE IN     BOUNDARY                    PERCENT   |
   NUMBER |     STORAGE        FLOW           SUM      DISCREPANCY |     STORAGE        FLOW           SUM      DISCREPANCY |
  --------|--------------------------------------------------------|--------------------------------------------------------|
      1     69783.        -69783.       -0.78125E-02   -0.11195E-04     10.272        -10.272        0.19073E-05    0.18568E-04
      2    0.91435E+08   -0.91435E+08    -8.0000       -0.87494E-05     15979.        -15979.        0.29297E-02    0.18335E-04
  --------|--------------------------------------------------------|--------------------------------------------------------|
 TOTALS:    0.91505E+08   -0.91505E+08    -8.0000       -0.87427E-05     15989.        -15989.        0.29297E-02    0.18323E-04
1
                            STRESS PERIOD NO.   18, LENGTH =   365.3000    
                            -----------------------------------------------

                              NUMBER OF TIME STEPS =     6

                               MULTIPLIER FOR DELT =     1.300

                            INITIAL TIME STEP SIZE =   28.63744    

 REUSING NON-PARAMETER WELLS FROM LAST STRESS PERIOD

     14 WELLS
 
 SOLVING FOR HEAD 

    44 ITERATIONS FOR TIME STEP   1 IN STRESS PERIOD   18

 MAXIMUM HEAD CHANGE FOR EACH ITERATION:

    HEAD CHANGE   HEAD CHANGE   HEAD CHANGE   HEAD CHANGE   HEAD CHANGE
  LAYER,ROW,COL LAYER,ROW,COL LAYER,ROW,COL LAYER,ROW,COL LAYER,ROW,COL
 ----------------------------------------------------------------------
      1.855         3.496         2.561        -1.362        -2.934    
  (  3,  1, 10) (  3,  2, 10) (  3,  4,  6) (  3,  1, 10) (  3,  1,  1)
    -0.2718       -0.6502        -1.497        -1.136        0.8260    
  (  3,  1, 10) (  3,  1,  1) (  3,  1, 10) (  3,  3,  1) (  3,  9, 10)
    -0.6344E-01   -0.7556E-02   -0.5190E-02   -0.3658E-02   -0.1571E-02
  (  2,  7,  1) (  3,  2,  8) (  3,  2,  6) (  3,  4,  6) (  3,  2,  1)
    -0.1544E-02   -0.6121E-03   -0.8353E-03    0.1381E-02    0.7196E-03
  (  3,  4,  6) (  3,  4,  6) (  3,  6,  5) (  3,  9,  1) (  3,  1,  8)
     0.1286E-02    0.1271E-02    0.1539E-02    0.1963E-02    0.1675E-02
  (  3, 10,  1) (  3,  1,  7) (  3, 10, 10) (  3,  1,  1) (  3,  1,  7)
     0.1128E-02    0.1057E-02    0.7721E-03    0.5524E-03    0.4132E-03
  (  3,  1,  8) (  3,  1,  8) (  3,  1,  7) (  3,  1,  8) (  3,  1,  7)
     0.2748E-03    0.2639E-03    0.1864E-03    0.1350E-03    0.1015E-03
  (  3,  1,  8) (  3,  1,  8) (  3,  1,  8) (  3,  1,  7) (  3,  1,  8)
     0.6796E-04    0.6307E-04    0.4599E-04    0.3343E-04    0.2495E-04
  (  3,  1,  8) (  3,  1,  7) (  3,  1,  7) (  3,  1,  8) (  3,  1,  7)
     0.1696E-04    0.1601E-04    0.1127E-04    0.4838E-05
  (  3,  1,  8) (  3,  1,  8) (  3,  1,  8) (  3,  1,  8)


 OUTPUT CONTROL FOR STRESS PERIOD   18   TIME STEP   1
    SAVE HEAD FOR ALL LAYERS

 HEAD WILL BE SAVED ON UNIT   21 AT END OF TIME STEP   1, STRESS PERIOD   18
 
 SOLVING FOR HEAD 
    41 ITERATIONS FOR TIME STEP   2 IN STRESS PERIOD   18

 MAXIMUM HEAD CHANGE FOR EACH ITERATION:

    HEAD CHANGE   HEAD CHANGE   HEAD CHANGE   HEAD CHANGE   HEAD CHANGE
  LAYER,ROW,COL LAYER,ROW,COL LAYER,ROW,COL LAYER,ROW,COL LAYER,ROW,COL
 ----------------------------------------------------------------------
      1.197         3.218         2.551        -1.121        -3.056    
  (  3,  4, 10) (  3,  1, 10) (  3,  2,  1) (  3,  2, 10) (  3,  1,  1)
    -0.2202       -0.5506        -1.328        0.2484       -0.3383E-01
  (  3,  1, 10) (  3,  1,  1) (  3,  1, 10) (  3, 10,  1) (  2,  1,  1)
    -0.6010E-01   -0.1019E-01   -0.2119E-02   -0.1469E-02   -0.1762E-02
  (  2,  7,  1) (  2,  1,  2) (  3,  3,  1) (  3,  2,  2) (  3,  1, 10)
     0.1403E-02    0.8742E-03    0.2474E-02    0.1234E-02    0.2885E-02
  (  3,  7,  6) (  3,  9,  8) (  3,  1, 10) (  3,  9,  1) (  3,  1,  4)
     0.1337E-02    0.2588E-02    0.2195E-02    0.1529E-02    0.1121E-02
  (  3, 10, 10) (  3,  1,  4) (  3,  4,  5) (  3,  4,  9) (  3,  4,  9)
     0.6763E-03    0.7621E-03    0.5299E-03    0.3561E-03    0.2605E-03
  (  3,  1, 10) (  3,  4,  5) (  3,  4,  5) (  3,  4,  9) (  3,  4,  9)
     0.1625E-03    0.1753E-03    0.1248E-03    0.8305E-04    0.6110E-04
  (  3,  1,  1) (  3,  4,  8) (  3,  4,  5) (  3,  4,  9) (  3,  4,  5)
     0.3565E-04    0.4123E-04    0.2875E-04    0.1960E-04    0.1475E-04
  (  3,  4,  9) (  3,  4,  5) (  3,  4,  5) (  3,  4,  9) (  3,  4,  4)
     0.9152E-05
  (  3,  1,  1)


 OUTPUT CONTROL FOR STRESS PERIOD   18   TIME STEP   2
    SAVE HEAD FOR ALL LAYERS

 HEAD WILL BE SAVED ON UNIT   21 AT END OF TIME STEP   2, STRESS PERIOD   18
 
 SOLVING FOR HEAD 
    40 ITERATIONS FOR TIME STEP   3 IN STRESS PERIOD   18

 MAXIMUM HEAD CHANGE FOR EACH ITERATION:

    HEAD CHANGE   HEAD CHANGE   HEAD CHANGE   HEAD CHANGE   HEAD CHANGE
  LAYER,ROW,COL LAYER,ROW,COL LAYER,ROW,COL LAYER,ROW,COL LAYER,ROW,COL
 ----------------------------------------------------------------------
      1.033         2.224         2.059       -0.8236        -3.022    
  (  3,  1,  1) (  3,  2, 10) (  3,  2,  1) (  3,  2, 10) (  3,  1,  1)
    -0.1587       -0.4015        -1.076        0.4912        0.3863E-01
  (  3,  1, 10) (  3,  1,  1) (  3,  1, 10) (  3, 10,  1) (  2, 10,  9)
    -0.4861E-01   -0.1173E-01   -0.5233E-02   -0.1937E-02   -0.1808E-02
  (  2,  7,  1) (  2,  1,  2) (  3,  3,  7) (  3,  3,  8) (  3,  2,  7)
     0.1715E-02    0.1803E-02    0.1842E-02    0.2386E-02    0.3244E-02
  (  3,  1,  1) (  3, 10,  1) (  3,  1,  1) (  3,  8,  1) (  3,  1,  1)
     0.1943E-02    0.2253E-02    0.1586E-02    0.9888E-03    0.7087E-03
  (  3,  1,  1) (  3,  3,  4) (  3,  3,  4) (  3,  3,  4) (  3,  3,  4)
     0.4072E-03    0.4905E-03    0.3453E-03    0.2179E-03    0.1556E-03
  (  3,  1, 10) (  3,  3,  4) (  3,  3,  4) (  3,  3,  4) (  3,  3,  4)
     0.9213E-04    0.1071E-03    0.7659E-04    0.4825E-04    0.3418E-04
  (  3,  1,  1) (  3,  3,  4) (  3,  3,  4) (  3,  3,  4) (  3,  3,  4)
     0.1930E-04    0.2387E-04    0.1713E-04    0.1075E-04    0.5884E-05
  (  3,  1,  1) (  3,  3,  4) (  3,  3,  5) (  3,  3,  4) (  3,  1,  2)


 OUTPUT CONTROL FOR STRESS PERIOD   18   TIME STEP   3
    SAVE HEAD FOR ALL LAYERS

 HEAD WILL BE SAVED ON UNIT   21 AT END OF TIME STEP   3, STRESS PERIOD   18
 
 SOLVING FOR HEAD 
    36 ITERATIONS FOR TIME STEP   4 IN STRESS PERIOD   18

 MAXIMUM HEAD CHANGE FOR EACH ITERATION:

    HEAD CHANGE   HEAD CHANGE   HEAD CHANGE   HEAD CHANGE   HEAD CHANGE
  LAYER,ROW,COL LAYER,ROW,COL LAYER,ROW,COL LAYER,ROW,COL LAYER,ROW,COL
 ----------------------------------------------------------------------
     0.8574         1.945         1.655       -0.8404        -2.987    
  (  3,  1,  1) (  3,  1, 10) (  3,  1,  1) (  3,  1,  4) (  3,  1,  1)
     0.1770        0.6587E-01   -0.2438E-01   -0.1617E-01   -0.1190E-01
  (  3, 10, 10) (  3,  9,  6) (  3,  1,  9) (  3,  2,  7) (  3,  3,  7)
    -0.5022E-02   -0.7069E-02   -0.2666E-02   -0.2163E-02    0.2267E-02
  (  3,  1,  1) (  3,  3,  7) (  3,  7,  5) (  3,  3,  7) (  3,  1,  3)
     0.1890E-02    0.3712E-02    0.2969E-02    0.1898E-02    0.1350E-02
  (  3, 10,  1) (  3,  1,  1) (  3,  1,  3) (  3,  1,  3) (  3,  1,  3)
     0.7195E-03    0.8931E-03    0.6405E-03    0.3933E-03    0.2732E-03
  (  3,  1,  1) (  3,  2,  2) (  3,  1,  1) (  3,  1,  3) (  3,  1,  4)
     0.1509E-03    0.1844E-03    0.1313E-03    0.8035E-04    0.5855E-04
  (  3,  1,  3) (  3,  1,  1) (  3,  1,  3) (  3,  1,  4) (  3,  1,  3)
     0.3200E-04    0.3795E-04    0.2674E-04    0.1728E-04    0.1220E-04
  (  2,  7,  1) (  3,  1,  3) (  3,  1,  4) (  3,  1,  3) (  3,  1,  4)
     0.6434E-05
  (  3,  1,  3)


 OUTPUT CONTROL FOR STRESS PERIOD   18   TIME STEP   4
    SAVE HEAD FOR ALL LAYERS

 HEAD WILL BE SAVED ON UNIT   21 AT END OF TIME STEP   4, STRESS PERIOD   18
 
 SOLVING FOR HEAD 
    31 ITERATIONS FOR TIME STEP   5 IN STRESS PERIOD   18

 MAXIMUM HEAD CHANGE FOR EACH ITERATION:

    HEAD CHANGE   HEAD CHANGE   HEAD CHANGE   HEAD CHANGE   HEAD CHANGE
  LAYER,ROW,COL LAYER,ROW,COL LAYER,ROW,COL LAYER,ROW,COL LAYER,ROW,COL
 ----------------------------------------------------------------------
     0.5562         1.215         1.022       -0.9135        -2.609    
  (  3,  1,  1) (  3,  1, 10) (  3,  2,  1) (  3,  2, 10) (  3,  1,  1)
     0.7289        0.4331        0.1319        0.6855E-01   -0.4604E-01
  (  3, 10,  1) (  3,  9,  3) (  2,  1,  8) (  2, 10,  1) (  2, 10, 10)
     0.7494E-01    0.1322E-01   -0.6588E-02   -0.3422E-02   -0.2318E-02
  (  2,  6,  1) (  2,  1,  2) (  3,  8,  4) (  3,  8,  2) (  3,  9,  3)
    -0.2204E-02   -0.1591E-02   -0.1195E-02   -0.6522E-03   -0.4194E-03
  (  2,  6,  1) (  3,  9,  3) (  3,  8,  3) (  3,  9,  8) (  3,  9,  8)
    -0.1943E-03   -0.2911E-03   -0.2261E-03   -0.1183E-03   -0.8228E-04
  (  3, 10, 10) (  3,  9,  2) (  3,  8,  3) (  3,  9,  8) (  3,  9,  8)
    -0.3609E-04   -0.5574E-04   -0.4117E-04   -0.2370E-04   -0.1524E-04
  (  2,  2,  1) (  3,  9,  8) (  3,  8,  3) (  3,  9,  8) (  3,  9,  8)
    -0.7086E-05
  (  3,  9,  8)


 OUTPUT CONTROL FOR STRESS PERIOD   18   TIME STEP   5
    SAVE HEAD FOR ALL LAYERS

 HEAD WILL BE SAVED ON UNIT   21 AT END OF TIME STEP   5, STRESS PERIOD   18
 
 SOLVING FOR HEAD 
    32 ITERATIONS FOR TIME STEP   6 IN STRESS PERIOD   18

 MAXIMUM HEAD CHANGE FOR EACH ITERATION:

    HEAD CHANGE   HEAD CHANGE   HEAD CHANGE   HEAD CHANGE   HEAD CHANGE
  LAYER,ROW,COL LAYER,ROW,COL LAYER,ROW,COL LAYER,ROW,COL LAYER,ROW,COL
 ----------------------------------------------------------------------
     0.3440        0.6931        0.5301        -1.032        -1.322    
  (  3,  1,  7) (  3,  1, 10) (  3,  2,  1) (  3,  1, 10) (  3,  1,  1)
     0.5782        0.3570        0.1030        0.3758E-01   -0.3342E-01
  (  3,  1, 10) (  3,  2,  2) (  2,  1,  9) (  2, 10,  1) (  2, 10, 10)
     0.3283E-01   -0.1285E-01   -0.1062E-01   -0.5343E-02   -0.3208E-02
  (  2,  7,  1) (  3,  2,  6) (  3,  3,  5) (  3,  3,  6) (  3,  3,  6)
    -0.2637E-02   -0.2142E-02   -0.1839E-02   -0.9061E-03   -0.5701E-03
  (  2,  7,  1) (  3,  3,  6) (  3,  3,  6) (  3,  3,  6) (  3,  3,  6)
    -0.4405E-03   -0.3745E-03   -0.3147E-03   -0.1627E-03   -0.9856E-04
  (  2,  9,  1) (  3,  3,  6) (  3,  3,  6) (  3,  3,  6) (  3,  3,  6)
    -0.4220E-04   -0.6563E-04   -0.5609E-04   -0.2887E-04   -0.1796E-04
  (  2,  8,  1) (  3,  3,  6) (  3,  3,  6) (  3,  3,  6) (  3,  3,  7)
    -0.1220E-04   -0.4463E-05
  (  2,  9,  1) (  3,  3,  6)


 OUTPUT CONTROL FOR STRESS PERIOD   18   TIME STEP   6
    PRINT BUDGET
    PRINT HEAD FOR ALL LAYERS
    SAVE HEAD FOR ALL LAYERS
    SAVE DRAWDOWN FOR ALL LAYERS
1
              HEAD IN LAYER   1 AT END OF TIME STEP   6 IN STRESS PERIOD   18
  ---------------------------------------------------------------------------

           1       2       3       4       5       6       7       8       9      10
 ...................................................................................
   1    20.77   20.42   19.75   19.33   19.13   19.13   19.33   19.75   20.41   20.76
   2    19.75   19.25   18.82   18.52   18.37   18.37   18.52   18.81   19.24   19.74
   3    18.29   17.80   17.43   17.18   17.05   17.05   17.17   17.42   17.79   18.28
   4    16.31   15.87   15.57   15.38   15.28   15.28   15.37   15.56   15.86   16.30
   5    13.49   13.40   13.30   13.21   13.17   13.17   13.21   13.29   13.39   13.48
   6    11.00   10.97   10.94   10.90   10.88   10.88   10.90   10.93   10.97   11.00
   7     8.61    8.59    8.55    8.52    8.50    8.49    8.51    8.55    8.58    8.60
   8     6.28    6.23    6.15    6.06    6.01    6.01    6.06    6.14    6.23    6.28
   9     4.15    4.00    3.73    3.42    3.29    3.29    3.42    3.72    4.00    4.15
  10     2.62    2.24    1.41    0.00    0.00    0.00    0.00    1.41    2.24    2.62
1
              HEAD IN LAYER   2 AT END OF TIME STEP   6 IN STRESS PERIOD   18
  ---------------------------------------------------------------------------

           1       2       3       4       5       6       7       8       9      10
 ...................................................................................
   1    -1.94   -1.92   -1.92   -1.93   -1.94   -1.96   -1.98   -2.00   -2.03   -2.06
   2    -2.04   -0.99   -1.27   -1.75   -2.25   -2.62   -2.59   -2.26   -1.92   -2.23
   3    -2.18   -1.55   -2.03   -2.84   -4.00   -5.57   -5.18   -3.85   -2.91   -2.42
   4    -2.36   -1.90   -2.28   -2.88   -3.64   -4.49   -4.34   -3.63   -3.02   -2.60
   5    -2.56   -2.20   -2.36   -2.63   -2.92   -3.14   -3.17   -3.04   -2.87   -2.79
   6    -2.77   -2.48   -2.53   -2.64   -2.76   -2.85   -2.88   -2.87   -2.86   -2.97
   7    -3.00   -2.86   -2.89   -2.95   -3.01   -3.05   -3.07   -3.07   -3.07   -3.16
   8    -3.23   -3.40   -3.48   -3.55   -3.59   -3.62   -3.61   -3.58   -3.52   -3.36
   9    -3.46   -4.04   -4.25   -4.40   -4.48   -4.49   -4.44   -4.30   -4.11   -3.54
  10    -3.67   -3.72   -3.76   -3.79   -3.81   -3.81   -3.81   -3.78   -3.75   -3.72
1
              HEAD IN LAYER   3 AT END OF TIME STEP   6 IN STRESS PERIOD   18
  ---------------------------------------------------------------------------

           1       2       3       4       5       6       7       8       9      10
 ...................................................................................
   1   -20.48  -20.65  -20.96  -21.37  -21.81  -22.16  -22.32  -22.32  -22.24  -22.18
   2   -20.54  -20.80  -21.31  -22.04  -22.91  -23.68  -23.76  -23.36  -22.95  -22.71
   3   -20.30  -20.68  -21.51  -22.91  -25.14  -28.75  -27.90  -25.20  -23.73  -23.07
   4   -19.21  -19.53  -20.18  -21.19  -22.62  -24.49  -24.23  -22.88  -22.00  -21.57
   5   -17.54  -17.71  -18.05  -18.52  -19.05  -19.51  -19.59  -19.41  -19.19  -19.06
   6   -15.79  -15.87  -16.03  -16.23  -16.44  -16.62  -16.70  -16.71  -16.69  -16.66
   7   -14.26  -14.30  -14.37  -14.46  -14.56  -14.64  -14.70  -14.73  -14.75  -14.75
   8   -13.10  -13.11  -13.15  -13.19  -13.24  -13.28  -13.32  -13.34  -13.36  -13.36
   9   -12.32  -12.33  -12.35  -12.37  -12.40  -12.42  -12.44  -12.46  -12.47  -12.47
  10   -11.93  -11.93  -11.94  -11.96  -11.98  -12.00  -12.01  -12.03  -12.03  -12.04

 HEAD WILL BE SAVED ON UNIT   21 AT END OF TIME STEP   6, STRESS PERIOD   18

 DRAWDOWN WILL BE SAVED ON UNIT   22 AT END OF TIME STEP   6, STRESS PERIOD   18
1
  VOLUMETRIC BUDGET FOR ENTIRE MODEL AT END OF TIME STEP  6 IN STRESS PERIOD  18
  ------------------------------------------------------------------------------

     CUMULATIVE VOLUMES      L**3       RATES FOR THIS TIME STEP      L**3/T
     ------------------                 ------------------------

           IN:                                      IN:
           ---                                      ---
             STORAGE =    29130164.0000               STORAGE =        3775.3213
       CONSTANT HEAD =      245425.7656         CONSTANT HEAD =          91.2977
               WELLS =   186333008.0000                 WELLS =       30000.0000
    INST. IB STORAGE =    41278628.0000      INST. IB STORAGE =        5271.5669
    DELAY IB STORAGE =    97322720.0000      DELAY IB STORAGE =       15886.8242

            TOTAL IN =   354309952.0000              TOTAL IN =       55025.0117

          OUT:                                     OUT:
          ----                                     ----
             STORAGE =           0.0000               STORAGE =           0.0000
       CONSTANT HEAD =   168007056.0000         CONSTANT HEAD =       25025.0703
               WELLS =   186303008.0000                 WELLS =       30000.0000
    INST. IB STORAGE =           0.0000      INST. IB STORAGE =           0.0000
    DELAY IB STORAGE =           0.0000      DELAY IB STORAGE =           0.0000

           TOTAL OUT =   354310080.0000             TOTAL OUT =       55025.0703

            IN - OUT =        -128.0000              IN - OUT =      -5.8594E-02

 PERCENT DISCREPANCY =           0.00     PERCENT DISCREPANCY =           0.00






          TIME SUMMARY AT END OF TIME STEP   6 IN STRESS PERIOD   18
                    SECONDS     MINUTES      HOURS       DAYS        YEARS
                    -----------------------------------------------------------
   TIME STEP LENGTH 9.18681E+06 1.53113E+05  2551.9      106.33     0.29111    
 STRESS PERIOD TIME 3.15619E+07 5.26032E+05  8767.2      365.30      1.0001    
         TOTAL TIME 5.36639E+08 8.94398E+06 1.49066E+05  6211.1      17.005    
1

                               VOLUMETRIC BUDGET FOR SYSTEMS OF DELAY INTERBEDS
                                          AT END OF TIME STEP  6 IN STRESS PERIOD 18

          |   C U M U L A T I V E   V O L U M E S   L**3           | R A T E S   F O R  T H I S  T I M E  S T E P   L**3/T  |
   SYSTEM |    CHANGE IN     BOUNDARY                    PERCENT   |    CHANGE IN     BOUNDARY                    PERCENT   |
   NUMBER |     STORAGE        FLOW           SUM      DISCREPANCY |     STORAGE        FLOW           SUM      DISCREPANCY |
  --------|--------------------------------------------------------|--------------------------------------------------------|
      1     73458.        -73458.         0.0000         0.0000         10.095        -10.095       -0.19073E-05   -0.18894E-04
      2    0.97249E+08   -0.97249E+08     0.0000         0.0000         15877.        -15877.       -0.97656E-03   -0.61509E-05
  --------|--------------------------------------------------------|--------------------------------------------------------|
 TOTALS:    0.97323E+08   -0.97323E+08     0.0000         0.0000         15887.        -15887.       -0.97656E-03   -0.61470E-05
1
                            STRESS PERIOD NO.   19, LENGTH =   365.3000    
                            -----------------------------------------------

                              NUMBER OF TIME STEPS =     6

                               MULTIPLIER FOR DELT =     1.300

                            INITIAL TIME STEP SIZE =   28.63744    

 REUSING NON-PARAMETER WELLS FROM LAST STRESS PERIOD

     14 WELLS
 
 SOLVING FOR HEAD 

    44 ITERATIONS FOR TIME STEP   1 IN STRESS PERIOD   19

 MAXIMUM HEAD CHANGE FOR EACH ITERATION:

    HEAD CHANGE   HEAD CHANGE   HEAD CHANGE   HEAD CHANGE   HEAD CHANGE
  LAYER,ROW,COL LAYER,ROW,COL LAYER,ROW,COL LAYER,ROW,COL LAYER,ROW,COL
 ----------------------------------------------------------------------
      1.352         4.073         2.983        -1.476        -2.930    
  (  3,  4, 10) (  3,  1, 10) (  3,  2,  1) (  3,  1,  2) (  3,  1,  1)
    -0.2685       -0.6570        -1.452        -1.090        0.7985    
  (  3,  1, 10) (  3,  1,  1) (  3,  1, 10) (  3,  3,  1) (  3,  8, 10)
    -0.6308E-01   -0.7538E-02   -0.5047E-02   -0.3655E-02   -0.1519E-02
  (  2,  7,  1) (  3,  1, 10) (  3,  2,  5) (  3,  1, 10) (  3,  3,  1)
    -0.1623E-02    0.8222E-03   -0.6096E-03    0.1409E-02    0.6785E-03
  (  3,  1, 10) (  3, 10,  6) (  3,  5,  1) (  3,  6,  4) (  3,  9,  2)
     0.1370E-02    0.1222E-02    0.1627E-02    0.1907E-02    0.1531E-02
  (  3,  8,  1) (  3,  2,  5) (  3, 10,  6) (  3,  1,  3) (  3,  1,  8)
     0.1030E-02    0.9644E-03    0.7045E-03    0.5019E-03    0.3756E-03
  (  3,  1,  8) (  3,  1,  8) (  3,  1,  8) (  3,  1,  8) (  3,  1,  8)
     0.2490E-03    0.2424E-03    0.1695E-03    0.1237E-03    0.9188E-04
  (  3,  1,  8) (  3,  1,  8) (  3,  1,  8) (  3,  1,  8) (  3,  1,  8)
     0.6246E-04    0.5781E-04    0.4206E-04    0.2978E-04    0.2245E-04
  (  3,  1,  8) (  3,  1,  8) (  3,  1,  8) (  3,  1,  8) (  3,  1,  8)
     0.1486E-04    0.1513E-04    0.1035E-04    0.3933E-05
  (  3,  1,  8) (  3,  1,  8) (  3,  1,  8) (  3,  1,  8)


 OUTPUT CONTROL FOR STRESS PERIOD   19   TIME STEP   1
    SAVE HEAD FOR ALL LAYERS

 HEAD WILL BE SAVED ON UNIT   21 AT END OF TIME STEP   1, STRESS PERIOD   19
 
 SOLVING FOR HEAD 
    42 ITERATIONS FOR TIME STEP   2 IN STRESS PERIOD   19

 MAXIMUM HEAD CHANGE FOR EACH ITERATION:

    HEAD CHANGE   HEAD CHANGE   HEAD CHANGE   HEAD CHANGE   HEAD CHANGE
  LAYER,ROW,COL LAYER,ROW,COL LAYER,ROW,COL LAYER,ROW,COL LAYER,ROW,COL
 ----------------------------------------------------------------------
      1.520         2.706         2.690        -1.063        -3.048    
  (  3,  1, 10) (  3,  1,  6) (  3,  2,  1) (  3,  2, 10) (  3,  1,  1)
    -0.2059       -0.5369        -1.321        0.2306       -0.3508E-01
  (  3,  1, 10) (  3,  1,  1) (  3,  1, 10) (  3, 10,  1) (  2,  1,  1)
    -0.5740E-01   -0.9769E-02   -0.3125E-02   -0.1744E-02   -0.1798E-02
  (  2,  7,  1) (  2,  1,  2) (  3,  3,  3) (  3,  1,  4) (  3,  3,  6)
     0.1360E-02    0.8262E-03    0.2176E-02    0.1332E-02    0.2587E-02
  (  3,  8,  1) (  3, 10,  3) (  3,  3,  2) (  3,  1,  9) (  3,  4,  1)
     0.1575E-02    0.2509E-02    0.2323E-02    0.1784E-02    0.1324E-02
  (  3,  1,  8) (  3,  7,  2) (  3,  1,  8) (  3,  1,  9) (  3,  1,  9)
     0.8526E-03    0.8464E-03    0.6051E-03    0.4177E-03    0.3086E-03
  (  3,  1,  9) (  3,  1,  1) (  3,  1,  8) (  3,  1,  9) (  3,  1,  8)
     0.2029E-03    0.2001E-03    0.1406E-03    0.9879E-04    0.7270E-04
  (  3,  1,  1) (  3,  1,  9) (  3,  1,  1) (  3,  1,  8) (  3,  1,  9)
     0.4760E-04    0.4663E-04    0.3320E-04    0.2299E-04    0.1716E-04
  (  3,  1,  9) (  3,  1,  1) (  3,  1,  8) (  3,  1,  1) (  3,  1,  8)
     0.1162E-04    0.8421E-05
  (  3,  1,  1) (  3,  1,  9)


 OUTPUT CONTROL FOR STRESS PERIOD   19   TIME STEP   2
    SAVE HEAD FOR ALL LAYERS

 HEAD WILL BE SAVED ON UNIT   21 AT END OF TIME STEP   2, STRESS PERIOD   19
 
 SOLVING FOR HEAD 
    39 ITERATIONS FOR TIME STEP   3 IN STRESS PERIOD   19

 MAXIMUM HEAD CHANGE FOR EACH ITERATION:

    HEAD CHANGE   HEAD CHANGE   HEAD CHANGE   HEAD CHANGE   HEAD CHANGE
  LAYER,ROW,COL LAYER,ROW,COL LAYER,ROW,COL LAYER,ROW,COL LAYER,ROW,COL
 ----------------------------------------------------------------------
     0.9703         2.242         2.069       -0.8010        -3.045    
  (  3,  1,  1) (  3,  1,  9) (  3,  3,  4) (  3,  1,  3) (  3,  1,  1)
     0.1668       -0.3885        -1.043        0.4956        0.3675E-01
  (  2,  5,  1) (  3,  1,  1) (  3,  1, 10) (  3, 10,  1) (  2, 10,  9)
    -0.4735E-01   -0.1266E-01   -0.4998E-02   -0.2380E-02   -0.1715E-02
  (  2,  7,  1) (  2,  1,  2) (  3,  3,  8) (  3,  4,  8) (  3,  2,  7)
     0.1810E-02    0.1720E-02    0.1761E-02    0.2533E-02    0.3115E-02
  (  3,  1,  1) (  3, 10,  1) (  3,  1,  8) (  3,  8, 10) (  3,  1,  1)
     0.1833E-02    0.2143E-02    0.1475E-02    0.9434E-03    0.6664E-03
  (  3,  1,  1) (  3,  2,  2) (  3,  2,  1) (  3,  1,  8) (  3,  1,  8)
     0.4133E-03    0.4570E-03    0.3154E-03    0.2000E-03    0.1468E-03
  (  3,  1, 10) (  3,  1,  1) (  3,  1,  8) (  3,  1,  8) (  3,  1,  1)
     0.8512E-04    0.9907E-04    0.6886E-04    0.4414E-04    0.3159E-04
  (  3,  1,  1) (  3,  2,  6) (  3,  2,  1) (  3,  1,  8) (  3,  1,  8)
     0.1986E-04    0.2145E-04    0.1527E-04    0.9634E-05
  (  3,  1, 10) (  3,  1,  1) (  3,  1,  8) (  3,  1,  8)


 OUTPUT CONTROL FOR STRESS PERIOD   19   TIME STEP   3
    SAVE HEAD FOR ALL LAYERS

 HEAD WILL BE SAVED ON UNIT   21 AT END OF TIME STEP   3, STRESS PERIOD   19
 
 SOLVING FOR HEAD 
    36 ITERATIONS FOR TIME STEP   4 IN STRESS PERIOD   19

 MAXIMUM HEAD CHANGE FOR EACH ITERATION:

    HEAD CHANGE   HEAD CHANGE   HEAD CHANGE   HEAD CHANGE   HEAD CHANGE
  LAYER,ROW,COL LAYER,ROW,COL LAYER,ROW,COL LAYER,ROW,COL LAYER,ROW,COL
 ----------------------------------------------------------------------
     0.8580         1.763         1.603       -0.7832        -2.897    
  (  3,  1,  1) (  3,  1, 10) (  3,  2,  4) (  3,  2, 10) (  3,  1,  1)
     0.1604        0.4389E-01   -0.2383E-01   -0.1582E-01   -0.1151E-01
  (  2,  5,  1) (  2, 10,  2) (  3,  2,  6) (  3,  2,  7) (  3,  3,  7)
    -0.6571E-02   -0.6755E-02   -0.2451E-02   -0.2010E-02    0.2350E-02
  (  2,  6,  1) (  3,  2,  7) (  3,  7,  4) (  3,  3,  7) (  3,  1,  3)
     0.1666E-02    0.3741E-02    0.2827E-02    0.1857E-02    0.1326E-02
  (  3, 10,  1) (  3,  1,  1) (  3,  1,  2) (  3,  1,  2) (  3,  1,  2)
     0.7141E-03    0.8825E-03    0.6351E-03    0.3829E-03    0.2648E-03
  (  3,  1,  1) (  3,  2,  2) (  3,  1,  1) (  3,  1,  2) (  3,  1,  2)
     0.1465E-03    0.1822E-03    0.1249E-03    0.7792E-04    0.5665E-04
  (  3,  1,  2) (  3,  1,  1) (  3,  1,  2) (  3,  1,  2) (  3,  1,  2)
     0.3141E-04    0.3601E-04    0.2686E-04    0.1614E-04    0.1140E-04
  (  2,  7,  1) (  3,  1,  2) (  3,  1,  2) (  3,  1,  2) (  3,  1,  2)
     0.6115E-05
  (  3,  1,  2)


 OUTPUT CONTROL FOR STRESS PERIOD   19   TIME STEP   4
    SAVE HEAD FOR ALL LAYERS

 HEAD WILL BE SAVED ON UNIT   21 AT END OF TIME STEP   4, STRESS PERIOD   19
 
 SOLVING FOR HEAD 
    31 ITERATIONS FOR TIME STEP   5 IN STRESS PERIOD   19

 MAXIMUM HEAD CHANGE FOR EACH ITERATION:

    HEAD CHANGE   HEAD CHANGE   HEAD CHANGE   HEAD CHANGE   HEAD CHANGE
  LAYER,ROW,COL LAYER,ROW,COL LAYER,ROW,COL LAYER,ROW,COL LAYER,ROW,COL
 ----------------------------------------------------------------------
     0.6694         1.202         1.029       -0.9208        -2.592    
  (  3,  1,  1) (  3,  1, 10) (  3,  3,  3) (  3,  2, 10) (  3,  1,  1)
     0.6965        0.4146        0.1321        0.6808E-01   -0.4589E-01
  (  3, 10,  1) (  3,  9,  3) (  2,  1,  8) (  2, 10,  1) (  2, 10, 10)
     0.7417E-01    0.1265E-01   -0.6233E-02   -0.3302E-02   -0.2163E-02
  (  2,  6,  1) (  2,  1,  2) (  3,  8,  4) (  3,  8,  1) (  3,  8,  4)
    -0.2125E-02   -0.1470E-02   -0.1147E-02   -0.6152E-03   -0.3995E-03
  (  2,  6,  1) (  3,  8,  3) (  3,  8,  2) (  3,  8,  4) (  3,  8,  2)
    -0.1775E-03   -0.2733E-03   -0.2150E-03   -0.1152E-03   -0.7635E-04
  (  3, 10,  7) (  3,  8,  3) (  3,  8,  4) (  3,  8,  1) (  3,  8,  5)
    -0.3266E-04   -0.5138E-04   -0.4048E-04   -0.2176E-04   -0.1468E-04
  (  3, 10,  1) (  3,  8,  4) (  3,  8,  3) (  3,  8,  5) (  3,  8,  2)
    -0.6406E-05
  (  3,  9,  9)


 OUTPUT CONTROL FOR STRESS PERIOD   19   TIME STEP   5
    SAVE HEAD FOR ALL LAYERS

 HEAD WILL BE SAVED ON UNIT   21 AT END OF TIME STEP   5, STRESS PERIOD   19
 
 SOLVING FOR HEAD 
    32 ITERATIONS FOR TIME STEP   6 IN STRESS PERIOD   19

 MAXIMUM HEAD CHANGE FOR EACH ITERATION:

    HEAD CHANGE   HEAD CHANGE   HEAD CHANGE   HEAD CHANGE   HEAD CHANGE
  LAYER,ROW,COL LAYER,ROW,COL LAYER,ROW,COL LAYER,ROW,COL LAYER,ROW,COL
 ----------------------------------------------------------------------
     0.3380        0.7016        0.4979        -1.047        -1.263    
  (  3,  3, 10) (  3,  1, 10) (  3,  2,  1) (  3,  1, 10) (  3,  1,  1)
     0.5685        0.3493        0.1008        0.3664E-01   -0.3267E-01
  (  3,  1, 10) (  3,  2,  2) (  2,  1,  9) (  2, 10,  1) (  2, 10, 10)
     0.3208E-01   -0.1264E-01   -0.1041E-01   -0.5241E-02   -0.3130E-02
  (  2,  7,  1) (  3,  2,  6) (  3,  3,  5) (  3,  3,  6) (  3,  3,  6)
    -0.2581E-02   -0.2096E-02   -0.1804E-02   -0.8832E-03   -0.5584E-03
  (  2,  7,  1) (  3,  3,  6) (  3,  3,  6) (  3,  3,  6) (  3,  3,  6)
    -0.4297E-03   -0.3659E-03   -0.3067E-03   -0.1590E-03   -0.9513E-04
  (  2,  9,  1) (  3,  3,  6) (  3,  3,  6) (  3,  3,  6) (  3,  3,  6)
    -0.4142E-04   -0.6374E-04   -0.5486E-04   -0.2776E-04   -0.1740E-04
  (  2,  8,  1) (  3,  3,  6) (  3,  3,  6) (  3,  3,  6) (  3,  3,  6)
    -0.1196E-04   -0.4152E-05
  (  2,  9,  1) (  3,  3,  6)


 OUTPUT CONTROL FOR STRESS PERIOD   19   TIME STEP   6
    PRINT BUDGET
    PRINT HEAD FOR ALL LAYERS
    SAVE HEAD FOR ALL LAYERS
    SAVE DRAWDOWN FOR ALL LAYERS
1
              HEAD IN LAYER   1 AT END OF TIME STEP   6 IN STRESS PERIOD   19
  ---------------------------------------------------------------------------

           1       2       3       4       5       6       7       8       9      10
 ...................................................................................
   1    20.68   20.32   19.66   19.24   19.03   19.03   19.23   19.65   20.32   20.67
   2    19.66   19.15   18.73   18.43   18.27   18.27   18.42   18.72   19.14   19.65
   3    18.20   17.70   17.33   17.08   16.96   16.96   17.08   17.32   17.69   18.19
   4    16.22   15.78   15.48   15.29   15.20   15.19   15.28   15.47   15.77   16.21
   5    13.41   13.32   13.22   13.13   13.09   13.09   13.13   13.21   13.31   13.40
   6    10.93   10.90   10.86   10.83   10.81   10.81   10.83   10.86   10.90   10.92
   7     8.55    8.53    8.49    8.46    8.44    8.44    8.46    8.49    8.52    8.54
   8     6.24    6.19    6.10    6.01    5.96    5.96    6.01    6.10    6.18    6.24
   9     4.12    3.97    3.70    3.39    3.26    3.26    3.39    3.69    3.97    4.12
  10     2.60    2.22    1.40    0.00    0.00    0.00    0.00    1.40    2.22    2.59
1
              HEAD IN LAYER   2 AT END OF TIME STEP   6 IN STRESS PERIOD   19
  ---------------------------------------------------------------------------

           1       2       3       4       5       6       7       8       9      10
 ...................................................................................
   1    -2.26   -2.24   -2.24   -2.25   -2.26   -2.28   -2.30   -2.32   -2.35   -2.38
   2    -2.35   -1.33   -1.61   -2.10   -2.60   -2.97   -2.94   -2.61   -2.27   -2.54
   3    -2.49   -1.89   -2.37   -3.18   -4.34   -5.91   -5.52   -4.19   -3.25   -2.73
   4    -2.66   -2.23   -2.61   -3.21   -3.96   -4.81   -4.67   -3.96   -3.34   -2.91
   5    -2.85   -2.51   -2.67   -2.94   -3.23   -3.45   -3.48   -3.35   -3.18   -3.09
   6    -3.06   -2.76   -2.82   -2.93   -3.05   -3.14   -3.17   -3.16   -3.15   -3.26
   7    -3.28   -3.13   -3.16   -3.22   -3.28   -3.32   -3.34   -3.34   -3.35   -3.45
   8    -3.51   -3.65   -3.73   -3.80   -3.85   -3.87   -3.86   -3.83   -3.77   -3.63
   9    -3.73   -4.28   -4.48   -4.64   -4.71   -4.73   -4.67   -4.54   -4.35   -3.81
  10    -3.94   -3.98   -4.02   -4.05   -4.07   -4.08   -4.07   -4.05   -4.02   -3.98
1
              HEAD IN LAYER   3 AT END OF TIME STEP   6 IN STRESS PERIOD   19
  ---------------------------------------------------------------------------

           1       2       3       4       5       6       7       8       9      10
 ...................................................................................
   1   -21.08  -21.25  -21.57  -21.98  -22.42  -22.77  -22.93  -22.93  -22.85  -22.79
   2   -21.14  -21.40  -21.91  -22.64  -23.51  -24.28  -24.36  -23.96  -23.55  -23.32
   3   -20.88  -21.27  -22.10  -23.50  -25.73  -29.34  -28.49  -25.79  -24.32  -23.66
   4   -19.78  -20.09  -20.74  -21.76  -23.19  -25.06  -24.79  -23.45  -22.57  -22.14
   5   -18.08  -18.25  -18.59  -19.06  -19.59  -20.04  -20.13  -19.95  -19.73  -19.60
   6   -16.30  -16.38  -16.53  -16.74  -16.95  -17.13  -17.21  -17.22  -17.20  -17.17
   7   -14.74  -14.78  -14.85  -14.94  -15.04  -15.12  -15.18  -15.21  -15.23  -15.23
   8   -13.55  -13.57  -13.61  -13.65  -13.70  -13.74  -13.78  -13.80  -13.82  -13.82
   9   -12.76  -12.77  -12.79  -12.81  -12.84  -12.86  -12.88  -12.90  -12.91  -12.92
  10   -12.36  -12.37  -12.38  -12.39  -12.41  -12.43  -12.45  -12.46  -12.47  -12.47

 HEAD WILL BE SAVED ON UNIT   21 AT END OF TIME STEP   6, STRESS PERIOD   19

 DRAWDOWN WILL BE SAVED ON UNIT   22 AT END OF TIME STEP   6, STRESS PERIOD   19
1
  VOLUMETRIC BUDGET FOR ENTIRE MODEL AT END OF TIME STEP  6 IN STRESS PERIOD  19
  ------------------------------------------------------------------------------

     CUMULATIVE VOLUMES      L**3       RATES FOR THIS TIME STEP      L**3/T
     ------------------                 ------------------------

           IN:                                      IN:
           ---                                      ---
             STORAGE =    30493032.0000               STORAGE =        3701.2317
       CONSTANT HEAD =      280155.0625         CONSTANT HEAD =          97.5944
               WELLS =   197292000.0000                 WELLS =       30000.0000
    INST. IB STORAGE =    43197340.0000      INST. IB STORAGE =        5236.3218
    DELAY IB STORAGE =   103103168.0000      DELAY IB STORAGE =       15785.2783

            TOTAL IN =   374365696.0000              TOTAL IN =       54820.4258

          OUT:                                     OUT:
          ----                                     ----
             STORAGE =           0.0000               STORAGE =           0.0000
       CONSTANT HEAD =   177103840.0000         CONSTANT HEAD =       24820.4746
               WELLS =   197262000.0000                 WELLS =       30000.0000
    INST. IB STORAGE =           0.0000      INST. IB STORAGE =           0.0000
    DELAY IB STORAGE =           0.0000      DELAY IB STORAGE =           0.0000

           TOTAL OUT =   374365824.0000             TOTAL OUT =       54820.4766

            IN - OUT =        -128.0000              IN - OUT =      -5.0781E-02

 PERCENT DISCREPANCY =           0.00     PERCENT DISCREPANCY =           0.00






          TIME SUMMARY AT END OF TIME STEP   6 IN STRESS PERIOD   19
                    SECONDS     MINUTES      HOURS       DAYS        YEARS
                    -----------------------------------------------------------
   TIME STEP LENGTH 9.18681E+06 1.53113E+05  2551.9      106.33     0.29111    
 STRESS PERIOD TIME 3.15619E+07 5.26032E+05  8767.2      365.30      1.0001    
         TOTAL TIME 5.68201E+08 9.47002E+06 1.57834E+05  6576.4      18.005    
1

                               VOLUMETRIC BUDGET FOR SYSTEMS OF DELAY INTERBEDS
                                          AT END OF TIME STEP  6 IN STRESS PERIOD 19

          |   C U M U L A T I V E   V O L U M E S   L**3           | R A T E S   F O R  T H I S  T I M E  S T E P   L**3/T  |
   SYSTEM |    CHANGE IN     BOUNDARY                    PERCENT   |    CHANGE IN     BOUNDARY                    PERCENT   |
   NUMBER |     STORAGE        FLOW           SUM      DISCREPANCY |     STORAGE        FLOW           SUM      DISCREPANCY |
  --------|--------------------------------------------------------|--------------------------------------------------------|
      1     77059.        -77059.         0.0000         0.0000         9.8670        -9.8670        0.47684E-05    0.48326E-04
      2    0.10303E+09   -0.10303E+09    -8.0000       -0.77650E-05     15775.        -15775.       -0.39063E-02   -0.24762E-04
  --------|--------------------------------------------------------|--------------------------------------------------------|
 TOTALS:    0.10310E+09   -0.10310E+09    -8.0000       -0.77592E-05     15785.        -15785.       -0.39063E-02   -0.24746E-04
1
                            STRESS PERIOD NO.   20, LENGTH =   365.3000    
                            -----------------------------------------------

                              NUMBER OF TIME STEPS =     6

                               MULTIPLIER FOR DELT =     1.300

                            INITIAL TIME STEP SIZE =   28.63744    

 REUSING NON-PARAMETER WELLS FROM LAST STRESS PERIOD

     14 WELLS
 
 SOLVING FOR HEAD 

    44 ITERATIONS FOR TIME STEP   1 IN STRESS PERIOD   20

 MAXIMUM HEAD CHANGE FOR EACH ITERATION:

    HEAD CHANGE   HEAD CHANGE   HEAD CHANGE   HEAD CHANGE   HEAD CHANGE
  LAYER,ROW,COL LAYER,ROW,COL LAYER,ROW,COL LAYER,ROW,COL LAYER,ROW,COL
 ----------------------------------------------------------------------
      1.749         4.060         2.383        -1.431        -2.667    
  (  3,  1,  1) (  3,  1, 10) (  3,  4,  5) (  3,  1, 10) (  3,  1,  1)
    -0.2388       -0.6496        -1.464        -1.140        0.8660    
  (  3,  1, 10) (  3,  1,  1) (  3,  1, 10) (  3,  4,  1) (  3, 10, 10)
    -0.5910E-01   -0.7091E-02   -0.4943E-02   -0.3381E-02   -0.1479E-02
  (  2,  7,  1) (  3,  1, 10) (  3,  2,  7) (  3,  4,  4) (  3,  2,  5)
    -0.1397E-02    0.6993E-03   -0.7190E-03    0.1471E-02    0.6055E-03
  (  3,  4,  4) (  3,  9, 10) (  3,  4,  2) (  3,  7, 10) (  3,  1,  7)
     0.1275E-02    0.1223E-02    0.1444E-02    0.1898E-02    0.1575E-02
  (  3,  7, 10) (  3,  3,  9) (  3, 10,  5) (  3,  1,  2) (  3,  1,  7)
     0.1055E-02    0.1001E-02    0.7242E-03    0.5194E-03    0.3863E-03
  (  3,  1,  7) (  3,  1,  7) (  3,  1,  7) (  3,  1,  7) (  3,  1,  7)
     0.2572E-03    0.2489E-03    0.1758E-03    0.1267E-03    0.9508E-04
  (  3,  1,  7) (  3,  1,  7) (  3,  1,  7) (  3,  1,  7) (  3,  1,  7)
     0.6415E-04    0.5953E-04    0.4370E-04    0.3128E-04    0.2307E-04
  (  3,  1,  7) (  3,  1,  7) (  3,  1,  7) (  3,  1,  7) (  3,  1,  7)
     0.1558E-04    0.1500E-04    0.1122E-04    0.4514E-05
  (  3,  1,  7) (  3,  1,  7) (  3,  1,  7) (  3,  1,  7)


 OUTPUT CONTROL FOR STRESS PERIOD   20   TIME STEP   1
    SAVE HEAD FOR ALL LAYERS

 HEAD WILL BE SAVED ON UNIT   21 AT END OF TIME STEP   1, STRESS PERIOD   20
 
 SOLVING FOR HEAD 
    42 ITERATIONS FOR TIME STEP   2 IN STRESS PERIOD   20

 MAXIMUM HEAD CHANGE FOR EACH ITERATION:

    HEAD CHANGE   HEAD CHANGE   HEAD CHANGE   HEAD CHANGE   HEAD CHANGE
  LAYER,ROW,COL LAYER,ROW,COL LAYER,ROW,COL LAYER,ROW,COL LAYER,ROW,COL
 ----------------------------------------------------------------------
      1.358         3.095         2.157        -1.119        -2.861    
  (  3,  1,  1) (  3,  1, 10) (  3,  4,  3) (  3,  2, 10) (  3,  1,  1)
    -0.2001       -0.5203        -1.292        0.2322       -0.3637E-01
  (  3,  1, 10) (  3,  1,  1) (  3,  1, 10) (  3, 10,  1) (  2,  1,  1)
    -0.5601E-01   -0.1132E-01   -0.1897E-02   -0.1351E-02   -0.1568E-02
  (  2,  7,  1) (  2,  1,  2) (  3,  6,  2) (  3,  2,  2) (  3,  4,  4)
     0.1381E-02    0.7814E-03    0.2107E-02    0.1514E-02    0.2433E-02
  (  3, 10,  1) (  3, 10,  6) (  3,  4,  1) (  3,  3,  8) (  3,  1, 10)
     0.1513E-02    0.2527E-02    0.2292E-02    0.1674E-02    0.1311E-02
  (  3,  3,  8) (  3,  1, 10) (  3,  3,  8) (  3,  1,  1) (  3,  1,  1)
     0.8015E-03    0.8556E-03    0.5711E-03    0.4195E-03    0.2872E-03
  (  3,  1,  1) (  3,  1,  1) (  3,  3,  6) (  3,  1,  1) (  3,  1,  1)
     0.2077E-03    0.1913E-03    0.1436E-03    0.8975E-04    0.7307E-04
  (  3,  1,  1) (  3,  2,  6) (  3,  1,  1) (  3,  3,  6) (  3,  1,  1)
     0.4447E-04    0.4677E-04    0.3138E-04    0.2385E-04    0.1589E-04
  (  3,  1,  1) (  3,  1,  1) (  3,  3,  6) (  3,  1,  1) (  3,  1,  1)
     0.1213E-04    0.6182E-05
  (  3,  1,  1) (  3,  1,  1)


 OUTPUT CONTROL FOR STRESS PERIOD   20   TIME STEP   2
    SAVE HEAD FOR ALL LAYERS

 HEAD WILL BE SAVED ON UNIT   21 AT END OF TIME STEP   2, STRESS PERIOD   20
 
 SOLVING FOR HEAD 
    39 ITERATIONS FOR TIME STEP   3 IN STRESS PERIOD   20

 MAXIMUM HEAD CHANGE FOR EACH ITERATION:

    HEAD CHANGE   HEAD CHANGE   HEAD CHANGE   HEAD CHANGE   HEAD CHANGE
  LAYER,ROW,COL LAYER,ROW,COL LAYER,ROW,COL LAYER,ROW,COL LAYER,ROW,COL
 ----------------------------------------------------------------------
     0.9999         2.523         2.003       -0.8711        -2.993    
  (  3,  1,  1) (  3,  1, 10) (  3,  3,  4) (  3,  1, 10) (  3,  1,  1)
     0.1594       -0.3616       -0.9816        0.4996        0.3526E-01
  (  2,  5,  1) (  3,  1,  1) (  3,  1, 10) (  3, 10,  1) (  2, 10,  9)
    -0.4341E-01   -0.1286E-01   -0.4559E-02   -0.1819E-02   -0.1284E-02
  (  2,  7,  1) (  2,  1,  2) (  3,  2,  4) (  3,  6,  7) (  3,  3,  1)
     0.1148E-02    0.1890E-02    0.1830E-02    0.2460E-02    0.3004E-02
  (  3,  1,  1) (  3, 10, 10) (  3,  1,  3) (  3,  9,  4) (  3,  1,  3)
     0.1768E-02    0.2085E-02    0.1425E-02    0.9062E-03    0.6635E-03
  (  3,  1,  1) (  3,  2,  8) (  3,  2,  8) (  3,  1,  3) (  3,  1,  4)
     0.3756E-03    0.4466E-03    0.3105E-03    0.2004E-03    0.1421E-03
  (  3,  1,  3) (  3,  2,  8) (  3,  2,  8) (  3,  1,  4) (  3,  1,  3)
     0.8222E-04    0.9830E-04    0.6813E-04    0.4383E-04    0.3148E-04
  (  3,  1,  1) (  3,  2,  8) (  3,  2,  8) (  3,  2,  8) (  3,  2,  8)
     0.1831E-04    0.2171E-04    0.1461E-04    0.9939E-05
  (  3,  1,  3) (  3,  2,  8) (  3,  2,  8) (  3,  2,  8)


 OUTPUT CONTROL FOR STRESS PERIOD   20   TIME STEP   3
    SAVE HEAD FOR ALL LAYERS

 HEAD WILL BE SAVED ON UNIT   21 AT END OF TIME STEP   3, STRESS PERIOD   20
 
 SOLVING FOR HEAD 
    36 ITERATIONS FOR TIME STEP   4 IN STRESS PERIOD   20

 MAXIMUM HEAD CHANGE FOR EACH ITERATION:

    HEAD CHANGE   HEAD CHANGE   HEAD CHANGE   HEAD CHANGE   HEAD CHANGE
  LAYER,ROW,COL LAYER,ROW,COL LAYER,ROW,COL LAYER,ROW,COL LAYER,ROW,COL
 ----------------------------------------------------------------------
     0.7869         1.580         1.617       -0.7545        -2.887    
  (  3,  1, 10) (  3,  1,  9) (  3,  3,  4) (  3,  2, 10) (  3,  1,  1)
     0.1701        0.4694E-01   -0.2317E-01   -0.1538E-01   -0.1117E-01
  (  2,  5,  1) (  2, 10,  2) (  3,  2,  7) (  3,  2,  7) (  3,  3,  6)
    -0.5268E-02   -0.6685E-02   -0.2581E-02   -0.1960E-02    0.2379E-02
  (  2,  6,  1) (  3,  2,  7) (  3,  7,  6) (  3,  3,  7) (  3,  1,  1)
     0.1427E-02    0.3580E-02    0.2837E-02    0.1846E-02    0.1280E-02
  (  3,  8,  1) (  3,  1,  1) (  3,  1, 10) (  3,  1,  1) (  3,  1,  1)
     0.7320E-03    0.8660E-03    0.6335E-03    0.3699E-03    0.2641E-03
  (  3,  1,  1) (  3,  1, 10) (  3,  1,  1) (  3,  1, 10) (  3,  1,  1)
     0.1506E-03    0.1810E-03    0.1237E-03    0.7863E-04    0.5420E-04
  (  3,  1, 10) (  3,  1,  1) (  3,  1, 10) (  3,  1,  1) (  3,  1,  1)
     0.3326E-04    0.3523E-04    0.2752E-04    0.1591E-04    0.1135E-04
  (  3,  1,  1) (  3,  1, 10) (  3,  1,  1) (  3,  1, 10) (  3,  1, 10)
     0.5732E-05
  (  2,  7,  1)


 OUTPUT CONTROL FOR STRESS PERIOD   20   TIME STEP   4
    SAVE HEAD FOR ALL LAYERS

 HEAD WILL BE SAVED ON UNIT   21 AT END OF TIME STEP   4, STRESS PERIOD   20
 
 SOLVING FOR HEAD 
    31 ITERATIONS FOR TIME STEP   5 IN STRESS PERIOD   20

 MAXIMUM HEAD CHANGE FOR EACH ITERATION:

    HEAD CHANGE   HEAD CHANGE   HEAD CHANGE   HEAD CHANGE   HEAD CHANGE
  LAYER,ROW,COL LAYER,ROW,COL LAYER,ROW,COL LAYER,ROW,COL LAYER,ROW,COL
 ----------------------------------------------------------------------
     0.4903         1.198         1.114       -0.8928        -2.629    
  (  3,  1,  5) (  3,  1, 10) (  3,  1,  1) (  3,  1,  7) (  3,  1,  1)
     0.7078        0.4150        0.1361        0.6964E-01   -0.4744E-01
  (  3,  1, 10) (  3,  9,  6) (  2,  1,  8) (  2, 10,  1) (  2, 10, 10)
     0.7601E-01    0.1280E-01   -0.6205E-02   -0.3178E-02   -0.2167E-02
  (  2,  6,  1) (  2,  1,  2) (  3,  8,  4) (  3,  8,  1) (  3,  9,  8)
    -0.2287E-02   -0.1481E-02   -0.1113E-02   -0.6127E-03   -0.3908E-03
  (  2,  6,  1) (  3,  9,  8) (  3,  8,  3) (  3,  9,  8) (  3,  9,  8)
    -0.1848E-03   -0.2679E-03   -0.2121E-03   -0.1103E-03   -0.7661E-04
  (  3, 10, 10) (  3,  9,  8) (  3,  8,  4) (  3,  9,  8) (  3,  9,  8)
    -0.3203E-04   -0.5203E-04   -0.3780E-04   -0.2206E-04   -0.1420E-04
  (  3, 10,  7) (  3,  9,  8) (  3,  8,  3) (  3,  9,  8) (  3,  9,  9)
    -0.6499E-05
  (  3,  9,  8)


 OUTPUT CONTROL FOR STRESS PERIOD   20   TIME STEP   5
    SAVE HEAD FOR ALL LAYERS

 HEAD WILL BE SAVED ON UNIT   21 AT END OF TIME STEP   5, STRESS PERIOD   20
 
 SOLVING FOR HEAD 
    32 ITERATIONS FOR TIME STEP   6 IN STRESS PERIOD   20

 MAXIMUM HEAD CHANGE FOR EACH ITERATION:

    HEAD CHANGE   HEAD CHANGE   HEAD CHANGE   HEAD CHANGE   HEAD CHANGE
  LAYER,ROW,COL LAYER,ROW,COL LAYER,ROW,COL LAYER,ROW,COL LAYER,ROW,COL
 ----------------------------------------------------------------------
     0.3293        0.6412        0.4809        -1.010        -1.254    
  (  3,  1,  5) (  3,  1, 10) (  3,  2,  2) (  3,  1, 10) (  3,  1,  1)
     0.5630        0.3462        0.9994E-01    0.3632E-01   -0.3249E-01
  (  3,  1, 10) (  3,  2,  2) (  2,  1,  9) (  2, 10,  1) (  2, 10, 10)
     0.3210E-01   -0.1253E-01   -0.1029E-01   -0.5179E-02   -0.3092E-02
  (  2,  7,  1) (  3,  2,  7) (  3,  3,  5) (  3,  3,  6) (  3,  3,  6)
    -0.2578E-02   -0.2070E-02   -0.1781E-02   -0.8701E-03   -0.5500E-03
  (  2,  7,  1) (  3,  3,  6) (  3,  3,  6) (  3,  3,  6) (  3,  3,  6)
    -0.4287E-03   -0.3610E-03   -0.3021E-03   -0.1559E-03   -0.9329E-04
  (  2,  9,  1) (  3,  3,  6) (  3,  3,  6) (  3,  3,  6) (  3,  3,  6)
    -0.4126E-04   -0.6223E-04   -0.5368E-04   -0.2743E-04   -0.1705E-04
  (  2,  8,  1) (  3,  3,  6) (  3,  3,  6) (  3,  3,  6) (  3,  3,  6)
    -0.1195E-04   -0.4460E-05
  (  2,  9,  1) (  3,  3,  6)


 OUTPUT CONTROL FOR STRESS PERIOD   20   TIME STEP   6
    PRINT BUDGET
    PRINT HEAD FOR ALL LAYERS
    SAVE HEAD FOR ALL LAYERS
    SAVE DRAWDOWN FOR ALL LAYERS
1
              HEAD IN LAYER   1 AT END OF TIME STEP   6 IN STRESS PERIOD   20
  ---------------------------------------------------------------------------

           1       2       3       4       5       6       7       8       9      10
 ...................................................................................
   1    20.58   20.23   19.56   19.14   18.93   18.93   19.14   19.56   20.22   20.57
   2    19.56   19.06   18.63   18.33   18.18   18.18   18.33   18.63   19.05   19.56
   3    18.11   17.61   17.24   16.99   16.87   16.86   16.99   17.23   17.60   18.10
   4    16.13   15.70   15.40   15.21   15.11   15.11   15.20   15.39   15.69   16.12
   5    13.33   13.24   13.14   13.05   13.01   13.01   13.05   13.13   13.23   13.32
   6    10.86   10.83   10.80   10.76   10.74   10.74   10.76   10.79   10.83   10.85
   7     8.49    8.47    8.43    8.40    8.38    8.38    8.40    8.43    8.46    8.49
   8     6.19    6.14    6.06    5.97    5.92    5.92    5.97    6.05    6.14    6.19
   9     4.09    3.94    3.67    3.37    3.24    3.24    3.36    3.67    3.93    4.08
  10     2.57    2.20    1.39    0.00    0.00    0.00    0.00    1.39    2.20    2.57
1
              HEAD IN LAYER   2 AT END OF TIME STEP   6 IN STRESS PERIOD   20
  ---------------------------------------------------------------------------

           1       2       3       4       5       6       7       8       9      10
 ...................................................................................
   1    -2.57   -2.56   -2.56   -2.57   -2.58   -2.60   -2.62   -2.64   -2.66   -2.69
   2    -2.66   -1.67   -1.96   -2.44   -2.94   -3.31   -3.28   -2.95   -2.61   -2.85
   3    -2.80   -2.22   -2.70   -3.51   -4.68   -6.25   -5.86   -4.53   -3.58   -3.03
   4    -2.96   -2.54   -2.93   -3.53   -4.29   -5.14   -4.99   -4.28   -3.66   -3.21
   5    -3.15   -2.81   -2.97   -3.25   -3.53   -3.76   -3.79   -3.65   -3.49   -3.38
   6    -3.35   -3.05   -3.10   -3.22   -3.34   -3.43   -3.46   -3.45   -3.44   -3.55
   7    -3.56   -3.40   -3.43   -3.49   -3.55   -3.59   -3.61   -3.61   -3.62   -3.73
   8    -3.78   -3.91   -3.98   -4.05   -4.10   -4.12   -4.11   -4.08   -4.03   -3.91
   9    -4.00   -4.52   -4.72   -4.87   -4.95   -4.96   -4.91   -4.78   -4.59   -4.08
  10    -4.20   -4.25   -4.28   -4.31   -4.33   -4.34   -4.33   -4.31   -4.28   -4.25
1
              HEAD IN LAYER   3 AT END OF TIME STEP   6 IN STRESS PERIOD   20
  ---------------------------------------------------------------------------

           1       2       3       4       5       6       7       8       9      10
 ...................................................................................
   1   -21.68  -21.85  -22.16  -22.58  -23.02  -23.37  -23.53  -23.53  -23.45  -23.39
   2   -21.73  -21.98  -22.50  -23.23  -24.10  -24.88  -24.96  -24.55  -24.15  -23.91
   3   -21.46  -21.84  -22.68  -24.08  -26.31  -29.92  -29.07  -26.37  -24.90  -24.24
   4   -20.33  -20.65  -21.30  -22.32  -23.75  -25.62  -25.35  -24.01  -23.13  -22.70
   5   -18.61  -18.78  -19.12  -19.59  -20.13  -20.58  -20.67  -20.48  -20.27  -20.14
   6   -16.80  -16.88  -17.04  -17.24  -17.46  -17.63  -17.72  -17.73  -17.71  -17.68
   7   -15.23  -15.26  -15.33  -15.43  -15.52  -15.61  -15.67  -15.70  -15.71  -15.71
   8   -14.01  -14.03  -14.07  -14.11  -14.16  -14.20  -14.24  -14.26  -14.28  -14.28
   9   -13.20  -13.21  -13.23  -13.26  -13.28  -13.31  -13.33  -13.35  -13.36  -13.36
  10   -12.80  -12.80  -12.81  -12.83  -12.85  -12.87  -12.88  -12.90  -12.91  -12.91

 HEAD WILL BE SAVED ON UNIT   21 AT END OF TIME STEP   6, STRESS PERIOD   20

 DRAWDOWN WILL BE SAVED ON UNIT   22 AT END OF TIME STEP   6, STRESS PERIOD   20
1
  VOLUMETRIC BUDGET FOR ENTIRE MODEL AT END OF TIME STEP  6 IN STRESS PERIOD  20
  ------------------------------------------------------------------------------

     CUMULATIVE VOLUMES      L**3       RATES FOR THIS TIME STEP      L**3/T
     ------------------                 ------------------------

           IN:                                      IN:
           ---                                      ---
             STORAGE =    31829468.0000               STORAGE =        3630.0657
       CONSTANT HEAD =      317182.7500         CONSTANT HEAD =         103.8828
               WELLS =   208250992.0000                 WELLS =       30000.0000
    INST. IB STORAGE =    45103380.0000      INST. IB STORAGE =        5202.7280
    DELAY IB STORAGE =   108846472.0000      DELAY IB STORAGE =       15682.7305

            TOTAL IN =   394347488.0000              TOTAL IN =       54619.4062

          OUT:                                     OUT:
          ----                                     ----
             STORAGE =           0.0000               STORAGE =           0.0000
       CONSTANT HEAD =   186126656.0000         CONSTANT HEAD =       24619.4922
               WELLS =   208220992.0000                 WELLS =       30000.0000
    INST. IB STORAGE =           0.0000      INST. IB STORAGE =           0.0000
    DELAY IB STORAGE =           0.0000      DELAY IB STORAGE =           0.0000

           TOTAL OUT =   394347648.0000             TOTAL OUT =       54619.4922

            IN - OUT =        -160.0000              IN - OUT =      -8.5938E-02

 PERCENT DISCREPANCY =           0.00     PERCENT DISCREPANCY =           0.00






          TIME SUMMARY AT END OF TIME STEP   6 IN STRESS PERIOD   20
                    SECONDS     MINUTES      HOURS       DAYS        YEARS
                    -----------------------------------------------------------
   TIME STEP LENGTH 9.18681E+06 1.53113E+05  2551.9      106.33     0.29111    
 STRESS PERIOD TIME 3.15619E+07 5.26032E+05  8767.2      365.30      1.0001    
         TOTAL TIME 5.99763E+08 9.99605E+06 1.66601E+05  6941.7      19.005    
1

                               VOLUMETRIC BUDGET FOR SYSTEMS OF DELAY INTERBEDS
                                          AT END OF TIME STEP  6 IN STRESS PERIOD 20

          |   C U M U L A T I V E   V O L U M E S   L**3           | R A T E S   F O R  T H I S  T I M E  S T E P   L**3/T  |
   SYSTEM |    CHANGE IN     BOUNDARY                    PERCENT   |    CHANGE IN     BOUNDARY                    PERCENT   |
   NUMBER |     STORAGE        FLOW           SUM      DISCREPANCY |     STORAGE        FLOW           SUM      DISCREPANCY |
  --------|--------------------------------------------------------|--------------------------------------------------------|
      1     80589.        -80589.         0.0000         0.0000         9.6710        -9.6710        0.95367E-06    0.98611E-05
      2    0.10877E+09   -0.10877E+09    -8.0000       -0.73552E-05     15673.        -15673.       -0.97656E-03   -0.62308E-05
  --------|--------------------------------------------------------|--------------------------------------------------------|
 TOTALS:    0.10885E+09   -0.10885E+09    -8.0000       -0.73498E-05     15683.        -15683.       -0.97656E-03   -0.62270E-05
1
                            STRESS PERIOD NO.   21, LENGTH =   365.3000    
                            -----------------------------------------------

                              NUMBER OF TIME STEPS =     6

                               MULTIPLIER FOR DELT =     1.300

                            INITIAL TIME STEP SIZE =   28.63744    

 REUSING NON-PARAMETER WELLS FROM LAST STRESS PERIOD

     14 WELLS
 
 SOLVING FOR HEAD 

    43 ITERATIONS FOR TIME STEP   1 IN STRESS PERIOD   21

 MAXIMUM HEAD CHANGE FOR EACH ITERATION:

    HEAD CHANGE   HEAD CHANGE   HEAD CHANGE   HEAD CHANGE   HEAD CHANGE
  LAYER,ROW,COL LAYER,ROW,COL LAYER,ROW,COL LAYER,ROW,COL LAYER,ROW,COL
 ----------------------------------------------------------------------
      1.752         2.949         2.752        -1.338        -2.723    
  (  3,  1, 10) (  3,  1,  5) (  3,  1,  1) (  3,  1,  4) (  3,  1,  1)
    -0.2442       -0.6500        -1.451        -1.142        0.8608    
  (  3,  1, 10) (  3,  1,  1) (  3,  1, 10) (  3,  3,  1) (  3, 10, 10)
    -0.6077E-01   -0.6494E-02   -0.4733E-02   -0.3537E-02   -0.1765E-02
  (  2,  7,  1) (  3,  1, 10) (  3,  1,  8) (  3,  3,  6) (  3,  2,  1)
    -0.1629E-02    0.8865E-03   -0.8768E-03    0.1448E-02    0.6624E-03
  (  3,  3,  6) (  3, 10, 10) (  3,  4,  8) (  3,  7, 10) (  3, 10,  2)
     0.1237E-02    0.1201E-02    0.1723E-02    0.2085E-02    0.1437E-02
  (  3,  7, 10) (  3,  2,  2) (  3, 10,  8) (  3,  1,  7) (  3,  1, 10)
     0.9975E-03    0.9542E-03    0.6544E-03    0.4612E-03    0.3464E-03
  (  3,  1, 10) (  3,  2,  2) (  3,  1, 10) (  3,  1, 10) (  3,  1, 10)
     0.2270E-03    0.2319E-03    0.1571E-03    0.1123E-03    0.8396E-04
  (  3,  1, 10) (  3,  2,  2) (  3,  2,  1) (  3,  1, 10) (  3,  1, 10)
     0.5770E-04    0.5541E-04    0.3855E-04    0.2709E-04    0.2075E-04
  (  3,  1, 10) (  3,  2,  2) (  3,  2,  3) (  3,  2,  1) (  3,  1, 10)
     0.1291E-04    0.1366E-04    0.9759E-05
  (  3,  1,  9) (  3,  2,  1) (  3,  1, 10)


 OUTPUT CONTROL FOR STRESS PERIOD   21   TIME STEP   1
    SAVE HEAD FOR ALL LAYERS

 HEAD WILL BE SAVED ON UNIT   21 AT END OF TIME STEP   1, STRESS PERIOD   21
 
 SOLVING FOR HEAD 
    42 ITERATIONS FOR TIME STEP   2 IN STRESS PERIOD   21

 MAXIMUM HEAD CHANGE FOR EACH ITERATION:

    HEAD CHANGE   HEAD CHANGE   HEAD CHANGE   HEAD CHANGE   HEAD CHANGE
  LAYER,ROW,COL LAYER,ROW,COL LAYER,ROW,COL LAYER,ROW,COL LAYER,ROW,COL
 ----------------------------------------------------------------------
      1.037         2.692         2.566        -1.047        -2.980    
  (  3,  2,  1) (  3,  1,  9) (  3,  1,  1) (  3,  1,  2) (  3,  1,  1)
    -0.2045       -0.5080        -1.269        0.2247       -0.3909E-01
  (  3,  1, 10) (  3,  1,  1) (  3,  1, 10) (  3, 10,  1) (  2,  1,  1)
    -0.5458E-01   -0.1280E-01   -0.2788E-02   -0.1681E-02   -0.1639E-02
  (  2,  7,  1) (  2,  1,  2) (  3,  5,  7) (  3,  2,  1) (  3,  3,  7)
     0.1144E-02    0.4926E-03    0.2212E-02    0.1334E-02    0.2572E-02
  (  3,  7,  1) (  3,  6,  1) (  3,  6,  1) (  3,  1,  7) (  3,  4,  1)
     0.1562E-02    0.2550E-02    0.2267E-02    0.1704E-02    0.1228E-02
  (  3,  1,  7) (  3,  5,  2) (  3,  1,  7) (  3,  1,  7) (  3,  1,  7)
     0.7887E-03    0.7908E-03    0.5773E-03    0.3880E-03    0.2938E-03
  (  3,  1,  7) (  3,  2,  7) (  3,  1,  7) (  3,  1,  7) (  3,  1,  7)
     0.1794E-03    0.1903E-03    0.1295E-03    0.9351E-04    0.6760E-04
  (  3,  1,  7) (  3,  1,  7) (  3,  1,  7) (  3,  1,  7) (  3,  1,  7)
     0.4379E-04    0.4279E-04    0.3209E-04    0.2135E-04    0.1607E-04
  (  3,  1,  7) (  3,  1,  7) (  3,  1,  7) (  3,  1,  7) (  3,  1,  7)
     0.1035E-04    0.5037E-05
  (  3,  1,  8) (  3,  1,  8)


 OUTPUT CONTROL FOR STRESS PERIOD   21   TIME STEP   2
    SAVE HEAD FOR ALL LAYERS

 HEAD WILL BE SAVED ON UNIT   21 AT END OF TIME STEP   2, STRESS PERIOD   21
 
 SOLVING FOR HEAD 
    39 ITERATIONS FOR TIME STEP   3 IN STRESS PERIOD   21

 MAXIMUM HEAD CHANGE FOR EACH ITERATION:

    HEAD CHANGE   HEAD CHANGE   HEAD CHANGE   HEAD CHANGE   HEAD CHANGE
  LAYER,ROW,COL LAYER,ROW,COL LAYER,ROW,COL LAYER,ROW,COL LAYER,ROW,COL
 ----------------------------------------------------------------------
     0.8630         2.428         2.250       -0.8702        -2.943    
  (  3,  1,  5) (  3,  1, 10) (  3,  1,  1) (  3,  1,  3) (  3,  1,  1)
     0.1835       -0.3790        -1.000        0.4859        0.3544E-01
  (  2,  6,  1) (  3,  1,  1) (  3,  1, 10) (  3, 10,  1) (  2, 10,  9)
    -0.4586E-01   -0.1212E-01   -0.4771E-02   -0.1688E-02   -0.1673E-02
  (  2,  7,  1) (  2,  1,  2) (  3,  2,  3) (  3,  4,  5) (  3,  2,  3)
     0.1614E-02    0.1832E-02    0.1775E-02    0.2427E-02    0.2974E-02
  (  3,  1,  7) (  3, 10,  2) (  3,  1,  9) (  3, 10,  1) (  3,  1,  3)
     0.1715E-02    0.2073E-02    0.1412E-02    0.8981E-03    0.6398E-03
  (  3,  1,  1) (  3,  2,  4) (  3,  2,  4) (  3,  1,  9) (  3,  1,  3)
     0.3945E-03    0.4395E-03    0.3039E-03    0.1927E-03    0.1395E-03
  (  3,  1, 10) (  3,  2,  4) (  3,  2,  4) (  3,  1,  3) (  3,  1,  3)
     0.7817E-04    0.9618E-04    0.6531E-04    0.4282E-04    0.2972E-04
  (  3,  1,  1) (  3,  2,  8) (  3,  2,  4) (  3,  2,  8) (  3,  1,  3)
     0.1764E-04    0.2059E-04    0.1430E-04    0.9665E-05
  (  3,  1, 10) (  3,  2,  8) (  3,  1,  3) (  3,  1,  8)


 OUTPUT CONTROL FOR STRESS PERIOD   21   TIME STEP   3
    SAVE HEAD FOR ALL LAYERS

 HEAD WILL BE SAVED ON UNIT   21 AT END OF TIME STEP   3, STRESS PERIOD   21
 
 SOLVING FOR HEAD 
    36 ITERATIONS FOR TIME STEP   4 IN STRESS PERIOD   21

 MAXIMUM HEAD CHANGE FOR EACH ITERATION:

    HEAD CHANGE   HEAD CHANGE   HEAD CHANGE   HEAD CHANGE   HEAD CHANGE
  LAYER,ROW,COL LAYER,ROW,COL LAYER,ROW,COL LAYER,ROW,COL LAYER,ROW,COL
 ----------------------------------------------------------------------
     0.9877         1.492         1.429       -0.7079        -2.773    
  (  3,  1,  1) (  3,  1,  6) (  3,  3,  6) (  3,  1,  9) (  3,  1,  1)
     0.1435        0.5380E-01   -0.2178E-01   -0.1498E-01   -0.1091E-01
  (  3, 10, 10) (  2, 10,  2) (  3,  3,  1) (  3,  1,  8) (  3,  3,  7)
    -0.4849E-02   -0.6551E-02   -0.2630E-02   -0.1871E-02    0.2212E-02
  (  3,  1,  1) (  3,  2,  8) (  3,  7,  4) (  3,  3,  7) (  3,  1,  2)
     0.1710E-02    0.3786E-02    0.2814E-02    0.1864E-02    0.1319E-02
  (  3, 10,  1) (  3,  1,  1) (  3,  1,  3) (  3,  1,  1) (  3,  1,  1)
     0.7322E-03    0.8604E-03    0.6399E-03    0.3794E-03    0.2667E-03
  (  3,  1,  1) (  3,  1,  3) (  3,  1,  1) (  3,  1,  1) (  3,  1,  3)
     0.1547E-03    0.1840E-03    0.1262E-03    0.7858E-04    0.5608E-04
  (  3,  1, 10) (  3,  1,  1) (  3,  1, 10) (  3,  1,  1) (  3,  1,  1)
     0.3164E-04    0.3668E-04    0.2721E-04    0.1669E-04    0.1171E-04
  (  3,  1,  1) (  3,  1,  3) (  3,  1,  1) (  3,  1,  1) (  3,  1,  3)
     0.5740E-05
  (  2,  6,  1)


 OUTPUT CONTROL FOR STRESS PERIOD   21   TIME STEP   4
    SAVE HEAD FOR ALL LAYERS

 HEAD WILL BE SAVED ON UNIT   21 AT END OF TIME STEP   4, STRESS PERIOD   21
 
 SOLVING FOR HEAD 
    31 ITERATIONS FOR TIME STEP   5 IN STRESS PERIOD   21

 MAXIMUM HEAD CHANGE FOR EACH ITERATION:

    HEAD CHANGE   HEAD CHANGE   HEAD CHANGE   HEAD CHANGE   HEAD CHANGE
  LAYER,ROW,COL LAYER,ROW,COL LAYER,ROW,COL LAYER,ROW,COL LAYER,ROW,COL
 ----------------------------------------------------------------------
     0.6330         1.213         1.021       -0.8550        -2.613    
  (  3,  1,  1) (  3,  1, 10) (  3,  3,  3) (  3,  1, 10) (  3,  1,  1)
     0.7061        0.4217        0.1384        0.7091E-01   -0.4793E-01
  (  3,  1, 10) (  3,  9,  3) (  2,  1,  8) (  2, 10,  1) (  2, 10, 10)
     0.7752E-01    0.1309E-01   -0.6465E-02   -0.3388E-02   -0.2280E-02
  (  2,  6,  1) (  2,  1,  2) (  3,  7,  3) (  3,  7,  1) (  3,  8,  1)
    -0.2199E-02   -0.1520E-02   -0.1164E-02   -0.6451E-03   -0.4044E-03
  (  2,  6,  1) (  3,  8,  3) (  3,  8,  3) (  3,  8,  3) (  3,  7,  1)
    -0.1900E-03   -0.2831E-03   -0.2246E-03   -0.1163E-03   -0.8078E-04
  (  3, 10, 10) (  3,  8,  2) (  3,  8,  3) (  3,  7,  1) (  3,  8,  3)
    -0.3139E-04   -0.5324E-04   -0.4046E-04   -0.2305E-04   -0.1428E-04
  (  3,  7,  1) (  3,  8,  3) (  3,  7,  1) (  3,  8,  3) (  3,  7,  1)
    -0.6582E-05
  (  3,  9,  9)


 OUTPUT CONTROL FOR STRESS PERIOD   21   TIME STEP   5
    SAVE HEAD FOR ALL LAYERS

 HEAD WILL BE SAVED ON UNIT   21 AT END OF TIME STEP   5, STRESS PERIOD   21
 
 SOLVING FOR HEAD 
    32 ITERATIONS FOR TIME STEP   6 IN STRESS PERIOD   21

 MAXIMUM HEAD CHANGE FOR EACH ITERATION:

    HEAD CHANGE   HEAD CHANGE   HEAD CHANGE   HEAD CHANGE   HEAD CHANGE
  LAYER,ROW,COL LAYER,ROW,COL LAYER,ROW,COL LAYER,ROW,COL LAYER,ROW,COL
 ----------------------------------------------------------------------
     0.3868        0.5440        0.4664       -0.9727        -1.229    
  (  3,  1, 10) (  3,  1,  5) (  3,  2,  1) (  3,  2, 10) (  3,  1,  1)
     0.5485        0.3361        0.9741E-01    0.3551E-01   -0.3173E-01
  (  3,  1, 10) (  3,  2,  2) (  2,  1,  9) (  2, 10,  1) (  2, 10, 10)
     0.3112E-01   -0.1225E-01   -0.1008E-01   -0.5076E-02   -0.3024E-02
  (  2,  7,  1) (  3,  2,  6) (  3,  3,  5) (  3,  3,  6) (  3,  3,  6)
    -0.2481E-02   -0.2025E-02   -0.1745E-02   -0.8505E-03   -0.5383E-03
  (  2,  7,  1) (  3,  3,  6) (  3,  3,  5) (  3,  3,  6) (  3,  3,  6)
    -0.4159E-03   -0.3522E-03   -0.2954E-03   -0.1526E-03   -0.9124E-04
  (  2,  9,  1) (  3,  3,  6) (  3,  3,  6) (  3,  3,  6) (  3,  3,  6)
    -0.3956E-04   -0.6132E-04   -0.5297E-04   -0.2525E-04   -0.1734E-04
  (  2,  8,  1) (  3,  3,  7) (  3,  3,  6) (  3,  3,  6) (  3,  3,  6)
    -0.1153E-04   -0.4146E-05
  (  2,  9,  1) (  3,  3,  5)


 OUTPUT CONTROL FOR STRESS PERIOD   21   TIME STEP   6
    PRINT BUDGET
    PRINT HEAD FOR ALL LAYERS
    SAVE HEAD FOR ALL LAYERS
    SAVE DRAWDOWN FOR ALL LAYERS
1
              HEAD IN LAYER   1 AT END OF TIME STEP   6 IN STRESS PERIOD   21
  ---------------------------------------------------------------------------

           1       2       3       4       5       6       7       8       9      10
 ...................................................................................
   1    20.49   20.14   19.47   19.05   18.84   18.84   19.04   19.46   20.13   20.48
   2    19.47   18.97   18.54   18.24   18.09   18.09   18.24   18.53   18.96   19.46
   3    18.02   17.53   17.15   16.91   16.78   16.78   16.90   17.14   17.52   18.01
   4    16.05   15.61   15.31   15.12   15.03   15.02   15.12   15.30   15.60   16.04
   5    13.25   13.16   13.06   12.98   12.93   12.93   12.97   13.05   13.15   13.24
   6    10.79   10.77   10.73   10.69   10.67   10.67   10.69   10.72   10.76   10.79
   7     8.43    8.41    8.38    8.34    8.32    8.32    8.34    8.37    8.41    8.43
   8     6.15    6.10    6.01    5.93    5.88    5.88    5.93    6.01    6.09    6.14
   9     4.05    3.91    3.64    3.34    3.21    3.21    3.34    3.64    3.90    4.05
  10     2.55    2.18    1.38    0.00    0.00    0.00    0.00    1.38    2.18    2.55
1
              HEAD IN LAYER   2 AT END OF TIME STEP   6 IN STRESS PERIOD   21
  ---------------------------------------------------------------------------

           1       2       3       4       5       6       7       8       9      10
 ...................................................................................
   1    -2.88   -2.87   -2.87   -2.88   -2.89   -2.91   -2.93   -2.95   -2.97   -3.01
   2    -2.97   -2.00   -2.29   -2.78   -3.27   -3.65   -3.62   -3.29   -2.94   -3.16
   3    -3.10   -2.54   -3.03   -3.84   -5.01   -6.58   -6.19   -4.86   -3.91   -3.33
   4    -3.26   -2.86   -3.25   -3.85   -4.61   -5.45   -5.31   -4.60   -3.98   -3.50
   5    -3.44   -3.11   -3.28   -3.55   -3.84   -4.06   -4.09   -3.96   -3.79   -3.67
   6    -3.64   -3.34   -3.39   -3.51   -3.62   -3.71   -3.75   -3.74   -3.72   -3.84
   7    -3.84   -3.67   -3.70   -3.76   -3.82   -3.86   -3.88   -3.88   -3.89   -4.01
   8    -4.06   -4.16   -4.24   -4.30   -4.35   -4.37   -4.37   -4.34   -4.29   -4.18
   9    -4.27   -4.76   -4.96   -5.11   -5.19   -5.20   -5.15   -5.02   -4.84   -4.35
  10    -4.46   -4.51   -4.55   -4.58   -4.59   -4.60   -4.59   -4.57   -4.54   -4.51
1
              HEAD IN LAYER   3 AT END OF TIME STEP   6 IN STRESS PERIOD   21
  ---------------------------------------------------------------------------

           1       2       3       4       5       6       7       8       9      10
 ...................................................................................
   1   -22.26  -22.43  -22.75  -23.17  -23.60  -23.96  -24.12  -24.12  -24.04  -23.98
   2   -22.31  -22.56  -23.08  -23.81  -24.68  -25.46  -25.54  -25.14  -24.73  -24.50
   3   -22.02  -22.41  -23.24  -24.64  -26.88  -30.49  -29.64  -26.94  -25.47  -24.82
   4   -20.88  -21.20  -21.85  -22.87  -24.30  -26.17  -25.91  -24.56  -23.68  -23.25
   5   -19.13  -19.31  -19.65  -20.12  -20.65  -21.11  -21.20  -21.01  -20.80  -20.67
   6   -17.30  -17.39  -17.54  -17.75  -17.96  -18.14  -18.23  -18.24  -18.21  -18.19
   7   -15.71  -15.75  -15.82  -15.91  -16.00  -16.09  -16.15  -16.18  -16.19  -16.20
   8   -14.47  -14.49  -14.53  -14.57  -14.62  -14.66  -14.70  -14.73  -14.74  -14.75
   9   -13.65  -13.66  -13.68  -13.70  -13.73  -13.76  -13.78  -13.80  -13.81  -13.81
  10   -13.24  -13.24  -13.26  -13.27  -13.29  -13.31  -13.33  -13.34  -13.35  -13.35

 HEAD WILL BE SAVED ON UNIT   21 AT END OF TIME STEP   6, STRESS PERIOD   21

 DRAWDOWN WILL BE SAVED ON UNIT   22 AT END OF TIME STEP   6, STRESS PERIOD   21
1
  VOLUMETRIC BUDGET FOR ENTIRE MODEL AT END OF TIME STEP  6 IN STRESS PERIOD  21
  ------------------------------------------------------------------------------

     CUMULATIVE VOLUMES      L**3       RATES FOR THIS TIME STEP      L**3/T
     ------------------                 ------------------------

           IN:                                      IN:
           ---                                      ---
             STORAGE =    33140550.0000               STORAGE =        3561.7715
       CONSTANT HEAD =      356505.2500         CONSTANT HEAD =         110.1601
               WELLS =   219209984.0000                 WELLS =       30000.0000
    INST. IB STORAGE =    46996892.0000      INST. IB STORAGE =        5168.5195
    DELAY IB STORAGE =   114552704.0000      DELAY IB STORAGE =       15581.4609

            TOTAL IN =   414256640.0000              TOTAL IN =       54421.9102

          OUT:                                     OUT:
          ----                                     ----
             STORAGE =           0.0000               STORAGE =           0.0000
       CONSTANT HEAD =   195076832.0000         CONSTANT HEAD =       24421.9844
               WELLS =   219179984.0000                 WELLS =       30000.0000
    INST. IB STORAGE =           0.0000      INST. IB STORAGE =           0.0000
    DELAY IB STORAGE =           0.0000      DELAY IB STORAGE =           0.0000

           TOTAL OUT =   414256832.0000             TOTAL OUT =       54421.9844

            IN - OUT =        -192.0000              IN - OUT =      -7.4219E-02

 PERCENT DISCREPANCY =           0.00     PERCENT DISCREPANCY =           0.00






          TIME SUMMARY AT END OF TIME STEP   6 IN STRESS PERIOD   21
                    SECONDS     MINUTES      HOURS       DAYS        YEARS
                    -----------------------------------------------------------
   TIME STEP LENGTH 9.18681E+06 1.53113E+05  2551.9      106.33     0.29111    
 STRESS PERIOD TIME 3.15619E+07 5.26032E+05  8767.2      365.30      1.0001    
         TOTAL TIME 6.31325E+08 1.05221E+07 1.75368E+05  7307.0      20.005    
1

                               VOLUMETRIC BUDGET FOR SYSTEMS OF DELAY INTERBEDS
                                          AT END OF TIME STEP  6 IN STRESS PERIOD 21

          |   C U M U L A T I V E   V O L U M E S   L**3           | R A T E S   F O R  T H I S  T I M E  S T E P   L**3/T  |
   SYSTEM |    CHANGE IN     BOUNDARY                    PERCENT   |    CHANGE IN     BOUNDARY                    PERCENT   |
   NUMBER |     STORAGE        FLOW           SUM      DISCREPANCY |     STORAGE        FLOW           SUM      DISCREPANCY |
  --------|--------------------------------------------------------|--------------------------------------------------------|
      1     84050.        -84050.         0.0000         0.0000         9.4753        -9.4753         0.0000         0.0000    
      2    0.11447E+09   -0.11447E+09    -8.0000       -0.69888E-05     15572.        -15572.         0.0000         0.0000    
  --------|--------------------------------------------------------|--------------------------------------------------------|
 TOTALS:    0.11455E+09   -0.11455E+09    -8.0000       -0.69837E-05     15581.        -15581.         0.0000         0.0000    
1
                            STRESS PERIOD NO.   22, LENGTH =   365.3000    
                            -----------------------------------------------

                              NUMBER OF TIME STEPS =     6

                               MULTIPLIER FOR DELT =     1.300

                            INITIAL TIME STEP SIZE =   28.63744    

 REUSING NON-PARAMETER WELLS FROM LAST STRESS PERIOD

     14 WELLS
 
 SOLVING FOR HEAD 

    43 ITERATIONS FOR TIME STEP   1 IN STRESS PERIOD   22

 MAXIMUM HEAD CHANGE FOR EACH ITERATION:

    HEAD CHANGE   HEAD CHANGE   HEAD CHANGE   HEAD CHANGE   HEAD CHANGE
  LAYER,ROW,COL LAYER,ROW,COL LAYER,ROW,COL LAYER,ROW,COL LAYER,ROW,COL
 ----------------------------------------------------------------------
      1.390         3.821         2.592        -1.248        -2.694    
  (  3, 10, 10) (  3,  1, 10) (  3,  3,  1) (  3,  1, 10) (  3,  2,  1)
    -0.2582       -0.6565        -1.421        -1.094        0.8250    
  (  3,  1, 10) (  3,  1,  1) (  3,  1, 10) (  3,  4,  1) (  3, 10, 10)
    -0.5903E-01   -0.6767E-02   -0.4714E-02   -0.3268E-02   -0.1476E-02
  (  2,  7,  1) (  3,  1, 10) (  3,  2,  7) (  3,  4,  4) (  3,  2,  3)
    -0.1435E-02    0.8529E-03   -0.6256E-03    0.1314E-02    0.5722E-03
  (  3,  1,  2) (  3, 10,  1) (  3,  4,  1) (  3,  1, 10) (  3,  3,  9)
     0.1242E-02    0.1203E-02    0.1627E-02    0.1811E-02    0.1412E-02
  (  3,  1,  8) (  3,  3,  9) (  3, 10,  2) (  3,  1,  5) (  3,  3,  9)
     0.8858E-03    0.9460E-03    0.6574E-03    0.4669E-03    0.3466E-03
  (  3,  3,  9) (  3,  3,  9) (  3,  3,  9) (  3,  3,  9) (  3,  3,  9)
     0.2192E-03    0.2302E-03    0.1618E-03    0.1131E-03    0.8542E-04
  (  3,  3,  9) (  3,  3,  9) (  3,  3,  9) (  3,  3,  9) (  3,  3,  9)
     0.5374E-04    0.5645E-04    0.3933E-04    0.2819E-04    0.2098E-04
  (  3,  3,  9) (  3,  3,  9) (  3,  3,  9) (  3,  3,  9) (  3,  3,  9)
     0.1372E-04    0.1303E-04    0.8780E-05
  (  3,  3,  9) (  3,  3,  9) (  3,  1,  4)


 OUTPUT CONTROL FOR STRESS PERIOD   22   TIME STEP   1
    SAVE HEAD FOR ALL LAYERS

 HEAD WILL BE SAVED ON UNIT   21 AT END OF TIME STEP   1, STRESS PERIOD   22
 
 SOLVING FOR HEAD 
    42 ITERATIONS FOR TIME STEP   2 IN STRESS PERIOD   22

 MAXIMUM HEAD CHANGE FOR EACH ITERATION:

    HEAD CHANGE   HEAD CHANGE   HEAD CHANGE   HEAD CHANGE   HEAD CHANGE
  LAYER,ROW,COL LAYER,ROW,COL LAYER,ROW,COL LAYER,ROW,COL LAYER,ROW,COL
 ----------------------------------------------------------------------
      1.333         2.675         2.815        -1.130        -3.004    
  (  3,  2, 10) (  3,  1,  9) (  3,  1,  1) (  3,  1,  2) (  3,  1,  1)
    -0.1950       -0.5075        -1.247        0.2269       -0.3454E-01
  (  3,  1, 10) (  3,  1,  1) (  3,  1, 10) (  3, 10,  1) (  2,  1,  1)
    -0.5336E-01   -0.1070E-01   -0.2825E-02   -0.1706E-02   -0.1729E-02
  (  2,  7,  1) (  2,  1,  2) (  3,  4,  6) (  3,  1,  1) (  3,  3,  7)
     0.1433E-02    0.4808E-03    0.2066E-02    0.1123E-02    0.2494E-02
  (  3, 10,  1) (  3, 10,  2) (  3,  5,  1) (  3,  1,  8) (  3,  2,  2)
     0.1353E-02    0.2452E-02    0.2177E-02    0.1650E-02    0.1236E-02
  (  3,  1,  8) (  3,  7,  3) (  3,  1,  8) (  3,  1,  8) (  3,  1,  8)
     0.7599E-03    0.8122E-03    0.5578E-03    0.3893E-03    0.2792E-03
  (  3,  1,  8) (  3,  2,  8) (  3,  1,  8) (  3,  1,  8) (  3,  1,  8)
     0.1777E-03    0.1872E-03    0.1307E-03    0.8838E-04    0.6742E-04
  (  3,  1,  8) (  3,  2,  8) (  3,  2,  8) (  3,  1,  8) (  3,  1,  8)
     0.4210E-04    0.4384E-04    0.3055E-04    0.2152E-04    0.1498E-04
  (  3,  1,  8) (  3,  2,  8) (  3,  1,  8) (  3,  3, 10) (  3,  1,  8)
     0.1024E-04    0.6171E-05
  (  3,  3, 10) (  3,  3, 10)


 OUTPUT CONTROL FOR STRESS PERIOD   22   TIME STEP   2
    SAVE HEAD FOR ALL LAYERS

 HEAD WILL BE SAVED ON UNIT   21 AT END OF TIME STEP   2, STRESS PERIOD   22
 
 SOLVING FOR HEAD 
    39 ITERATIONS FOR TIME STEP   3 IN STRESS PERIOD   22

 MAXIMUM HEAD CHANGE FOR EACH ITERATION:

    HEAD CHANGE   HEAD CHANGE   HEAD CHANGE   HEAD CHANGE   HEAD CHANGE
  LAYER,ROW,COL LAYER,ROW,COL LAYER,ROW,COL LAYER,ROW,COL LAYER,ROW,COL
 ----------------------------------------------------------------------
      1.011         1.988         2.206       -0.7344        -2.876    
  (  3,  1, 10) (  3,  2, 10) (  3,  1,  1) (  3,  1,  3) (  3,  1,  1)
     0.1829       -0.3865        -1.021        0.4760        0.3504E-01
  (  2,  6,  1) (  3,  1,  1) (  3,  1, 10) (  3, 10,  1) (  2, 10,  9)
    -0.4811E-01   -0.1249E-01   -0.4563E-02   -0.1431E-02   -0.1576E-02
  (  2,  7,  1) (  2,  1,  2) (  3,  3,  7) (  3,  7,  8) (  3,  1,  3)
     0.1496E-02    0.1794E-02    0.2145E-02    0.2591E-02    0.3060E-02
  (  3,  1, 10) (  3, 10,  2) (  3,  2,  1) (  3, 10,  1) (  3,  1,  1)
     0.1794E-02    0.2132E-02    0.1483E-02    0.9389E-03    0.6600E-03
  (  3,  1,  1) (  3,  2,  6) (  3,  3,  6) (  3,  1,  6) (  3,  3,  6)
     0.4032E-03    0.4575E-03    0.3253E-03    0.2021E-03    0.1458E-03
  (  3,  1, 10) (  3,  3,  6) (  3,  3,  6) (  3,  3,  6) (  3,  3,  6)
     0.8375E-04    0.1009E-03    0.7065E-04    0.4524E-04    0.3233E-04
  (  3,  1,  1) (  3,  3,  6) (  3,  3,  6) (  3,  3,  6) (  3,  3,  6)
     0.1985E-04    0.2130E-04    0.1637E-04    0.9906E-05
  (  3,  1, 10) (  3,  3,  6) (  3,  3,  6) (  3,  3,  6)


 OUTPUT CONTROL FOR STRESS PERIOD   22   TIME STEP   3
    SAVE HEAD FOR ALL LAYERS

 HEAD WILL BE SAVED ON UNIT   21 AT END OF TIME STEP   3, STRESS PERIOD   22
 
 SOLVING FOR HEAD 
    36 ITERATIONS FOR TIME STEP   4 IN STRESS PERIOD   22

 MAXIMUM HEAD CHANGE FOR EACH ITERATION:

    HEAD CHANGE   HEAD CHANGE   HEAD CHANGE   HEAD CHANGE   HEAD CHANGE
  LAYER,ROW,COL LAYER,ROW,COL LAYER,ROW,COL LAYER,ROW,COL LAYER,ROW,COL
 ----------------------------------------------------------------------
     0.8019         1.664         1.666       -0.8286        -2.814    
  (  3,  1,  7) (  3,  1, 10) (  3,  1,  1) (  3,  2, 10) (  3,  1,  1)
     0.1616        0.5541E-01   -0.1855E-01   -0.1476E-01   -0.1077E-01
  (  2,  5,  1) (  2, 10,  2) (  3,  2,  9) (  3,  1,  1) (  3,  3,  7)
    -0.4989E-02   -0.6611E-02   -0.2930E-02   -0.1919E-02    0.2073E-02
  (  3,  1,  1) (  3,  2,  7) (  3,  6,  4) (  3,  3,  7) (  3,  1, 10)
     0.1494E-02    0.3041E-02    0.2693E-02    0.1712E-02    0.1232E-02
  (  3, 10,  1) (  3,  1,  2) (  3,  1,  4) (  3,  1,  8) (  3,  1,  3)
     0.6409E-03    0.8124E-03    0.5734E-03    0.3585E-03    0.2505E-03
  (  3,  1,  9) (  3,  1, 10) (  3,  1,  3) (  3,  1,  3) (  3,  1,  9)
     0.1388E-03    0.1633E-03    0.1193E-03    0.7263E-04    0.5313E-04
  (  3,  1, 10) (  3,  1,  2) (  3,  1,  4) (  3,  1,  8) (  3,  1,  2)
     0.2946E-04    0.3384E-04    0.2422E-04    0.1535E-04    0.1091E-04
  (  2,  7,  1) (  3,  1,  3) (  3,  1,  3) (  3,  1,  3) (  3,  1,  9)
     0.5500E-05
  (  2,  6,  1)


 OUTPUT CONTROL FOR STRESS PERIOD   22   TIME STEP   4
    SAVE HEAD FOR ALL LAYERS

 HEAD WILL BE SAVED ON UNIT   21 AT END OF TIME STEP   4, STRESS PERIOD   22
 
 SOLVING FOR HEAD 
    31 ITERATIONS FOR TIME STEP   5 IN STRESS PERIOD   22

 MAXIMUM HEAD CHANGE FOR EACH ITERATION:

    HEAD CHANGE   HEAD CHANGE   HEAD CHANGE   HEAD CHANGE   HEAD CHANGE
  LAYER,ROW,COL LAYER,ROW,COL LAYER,ROW,COL LAYER,ROW,COL LAYER,ROW,COL
 ----------------------------------------------------------------------
     0.6074         1.165        0.9474       -0.8297        -2.497    
  (  3,  1,  1) (  3,  1, 10) (  3,  3,  6) (  3,  2, 10) (  3,  1,  1)
     0.6724        0.3909        0.1405        0.6622E-01   -0.4512E-01
  (  3,  1, 10) (  3,  9,  3) (  2,  3,  6) (  2, 10,  1) (  2, 10, 10)
     0.7251E-01    0.1278E-01   -0.5826E-02   -0.3095E-02   -0.2027E-02
  (  2,  6,  1) (  2,  1,  2) (  3,  7,  2) (  3,  7,  1) (  3,  8,  2)
    -0.1864E-02   -0.1370E-02   -0.1062E-02   -0.5787E-03   -0.3729E-03
  (  2,  6,  1) (  3,  7,  2) (  3,  7,  2) (  3,  7,  1) (  3,  7,  1)
    -0.1683E-03   -0.2555E-03   -0.2011E-03   -0.1079E-03   -0.7223E-04
  (  3, 10, 10) (  3,  7,  2) (  3,  7,  2) (  3,  7,  1) (  3,  8,  3)
    -0.2941E-04   -0.4851E-04   -0.3752E-04   -0.2122E-04   -0.1318E-04
  (  3,  7,  1) (  3,  7,  2) (  3,  7,  2) (  3,  8,  3) (  3,  7,  1)
    -0.5870E-05
  (  3,  7,  1)


 OUTPUT CONTROL FOR STRESS PERIOD   22   TIME STEP   5
    SAVE HEAD FOR ALL LAYERS

 HEAD WILL BE SAVED ON UNIT   21 AT END OF TIME STEP   5, STRESS PERIOD   22
 
 SOLVING FOR HEAD 
    32 ITERATIONS FOR TIME STEP   6 IN STRESS PERIOD   22

 MAXIMUM HEAD CHANGE FOR EACH ITERATION:

    HEAD CHANGE   HEAD CHANGE   HEAD CHANGE   HEAD CHANGE   HEAD CHANGE
  LAYER,ROW,COL LAYER,ROW,COL LAYER,ROW,COL LAYER,ROW,COL LAYER,ROW,COL
 ----------------------------------------------------------------------
     0.3359        0.6038        0.4709       -0.9991        -1.190    
  (  3,  1,  8) (  3,  1, 10) (  3,  2,  1) (  3,  2, 10) (  3,  1,  1)
     0.5479        0.3353        0.9724E-01    0.3543E-01   -0.3203E-01
  (  3,  1, 10) (  3,  2,  2) (  2,  1,  9) (  2, 10,  1) (  2, 10, 10)
     0.3124E-01   -0.1223E-01   -0.1006E-01   -0.5038E-02   -0.3013E-02
  (  2,  7,  1) (  3,  2,  6) (  3,  3,  5) (  3,  3,  5) (  3,  3,  6)
    -0.2418E-02   -0.2013E-02   -0.1735E-02   -0.8461E-03   -0.5317E-03
  (  2,  7,  1) (  3,  3,  6) (  3,  3,  5) (  3,  3,  6) (  3,  3,  6)
    -0.4184E-03   -0.3496E-03   -0.2932E-03   -0.1507E-03   -0.9131E-04
  (  2,  9,  1) (  3,  2,  6) (  3,  3,  5) (  3,  3,  6) (  3,  3,  6)
    -0.4056E-04   -0.6118E-04   -0.5158E-04   -0.2667E-04   -0.1620E-04
  (  2,  8,  1) (  3,  3,  6) (  3,  3,  6) (  3,  3,  6) (  3,  3,  6)
    -0.1179E-04   -0.4138E-05
  (  2,  9,  1) (  3,  3,  5)


 OUTPUT CONTROL FOR STRESS PERIOD   22   TIME STEP   6
    PRINT BUDGET
    PRINT HEAD FOR ALL LAYERS
    SAVE HEAD FOR ALL LAYERS
    SAVE DRAWDOWN FOR ALL LAYERS
1
              HEAD IN LAYER   1 AT END OF TIME STEP   6 IN STRESS PERIOD   22
  ---------------------------------------------------------------------------

           1       2       3       4       5       6       7       8       9      10
 ...................................................................................
   1    20.40   20.05   19.38   18.96   18.75   18.75   18.95   19.37   20.04   20.39
   2    19.39   18.88   18.45   18.15   18.00   18.00   18.15   18.44   18.87   19.38
   3    17.94   17.44   17.07   16.82   16.69   16.69   16.81   17.06   17.43   17.93
   4    15.97   15.53   15.23   15.04   14.94   14.94   15.03   15.22   15.52   15.96
   5    13.18   13.09   12.98   12.90   12.86   12.85   12.90   12.98   13.08   13.17
   6    10.73   10.70   10.66   10.62   10.60   10.60   10.62   10.66   10.69   10.72
   7     8.38    8.36    8.32    8.29    8.27    8.27    8.28    8.32    8.35    8.37
   8     6.10    6.05    5.97    5.88    5.84    5.84    5.88    5.97    6.05    6.10
   9     4.02    3.88    3.61    3.31    3.19    3.19    3.31    3.61    3.87    4.02
  10     2.53    2.16    1.37    0.00    0.00    0.00    0.00    1.37    2.16    2.53
1
              HEAD IN LAYER   2 AT END OF TIME STEP   6 IN STRESS PERIOD   22
  ---------------------------------------------------------------------------

           1       2       3       4       5       6       7       8       9      10
 ...................................................................................
   1    -3.19   -3.18   -3.18   -3.19   -3.20   -3.22   -3.24   -3.26   -3.28   -3.31
   2    -3.27   -2.32   -2.62   -3.11   -3.61   -3.98   -3.95   -3.62   -3.27   -3.46
   3    -3.40   -2.86   -3.35   -4.17   -5.33   -6.90   -6.51   -5.18   -4.23   -3.63
   4    -3.55   -3.17   -3.56   -4.16   -4.92   -5.77   -5.62   -4.91   -4.29   -3.80
   5    -3.73   -3.41   -3.58   -3.85   -4.14   -4.36   -4.39   -4.26   -4.09   -3.96
   6    -3.92   -3.62   -3.67   -3.79   -3.91   -4.00   -4.03   -4.02   -4.01   -4.12
   7    -4.12   -3.94   -3.97   -4.03   -4.09   -4.13   -4.15   -4.15   -4.16   -4.28
   8    -4.33   -4.42   -4.49   -4.55   -4.60   -4.63   -4.62   -4.59   -4.54   -4.45
   9    -4.53   -5.01   -5.20   -5.35   -5.43   -5.44   -5.39   -5.26   -5.08   -4.62
  10    -4.73   -4.77   -4.81   -4.84   -4.85   -4.86   -4.85   -4.83   -4.81   -4.77
1
              HEAD IN LAYER   3 AT END OF TIME STEP   6 IN STRESS PERIOD   22
  ---------------------------------------------------------------------------

           1       2       3       4       5       6       7       8       9      10
 ...................................................................................
   1   -22.84  -23.01  -23.33  -23.74  -24.18  -24.54  -24.70  -24.70  -24.62  -24.56
   2   -22.88  -23.14  -23.65  -24.38  -25.25  -26.03  -26.11  -25.71  -25.30  -25.07
   3   -22.58  -22.97  -23.80  -25.21  -27.44  -31.06  -30.20  -27.50  -26.03  -25.38
   4   -21.42  -21.74  -22.39  -23.41  -24.84  -26.72  -26.45  -25.11  -24.23  -23.80
   5   -19.66  -19.83  -20.17  -20.64  -21.18  -21.63  -21.72  -21.54  -21.32  -21.19
   6   -17.81  -17.89  -18.04  -18.25  -18.46  -18.64  -18.73  -18.74  -18.71  -18.69
   7   -16.19  -16.23  -16.30  -16.39  -16.49  -16.57  -16.63  -16.66  -16.68  -16.68
   8   -14.94  -14.96  -14.99  -15.04  -15.08  -15.13  -15.16  -15.19  -15.21  -15.21
   9   -14.10  -14.11  -14.13  -14.15  -14.18  -14.21  -14.23  -14.25  -14.26  -14.26
  10   -13.68  -13.69  -13.70  -13.72  -13.74  -13.75  -13.77  -13.78  -13.79  -13.80

 HEAD WILL BE SAVED ON UNIT   21 AT END OF TIME STEP   6, STRESS PERIOD   22

 DRAWDOWN WILL BE SAVED ON UNIT   22 AT END OF TIME STEP   6, STRESS PERIOD   22
1
  VOLUMETRIC BUDGET FOR ENTIRE MODEL AT END OF TIME STEP  6 IN STRESS PERIOD  22
  ------------------------------------------------------------------------------

     CUMULATIVE VOLUMES      L**3       RATES FOR THIS TIME STEP      L**3/T
     ------------------                 ------------------------

           IN:                                      IN:
           ---                                      ---
             STORAGE =    34427268.0000               STORAGE =        3496.1169
       CONSTANT HEAD =      398117.9375         CONSTANT HEAD =         116.4234
               WELLS =   230168976.0000                 WELLS =       30000.0000
    INST. IB STORAGE =    48877908.0000      INST. IB STORAGE =        5134.0542
    DELAY IB STORAGE =   120222096.0000      DELAY IB STORAGE =       15481.1826

            TOTAL IN =   434094368.0000              TOTAL IN =       54227.7773

          OUT:                                     OUT:
          ----                                     ----
             STORAGE =           0.0000               STORAGE =           0.0000
       CONSTANT HEAD =   203955584.0000         CONSTANT HEAD =       24227.8301
               WELLS =   230138976.0000                 WELLS =       30000.0000
    INST. IB STORAGE =           0.0000      INST. IB STORAGE =           0.0000
    DELAY IB STORAGE =           0.0000      DELAY IB STORAGE =           0.0000

           TOTAL OUT =   434094560.0000             TOTAL OUT =       54227.8281

            IN - OUT =        -192.0000              IN - OUT =      -5.0781E-02

 PERCENT DISCREPANCY =           0.00     PERCENT DISCREPANCY =           0.00






          TIME SUMMARY AT END OF TIME STEP   6 IN STRESS PERIOD   22
                    SECONDS     MINUTES      HOURS       DAYS        YEARS
                    -----------------------------------------------------------
   TIME STEP LENGTH 9.18681E+06 1.53113E+05  2551.9      106.33     0.29111    
 STRESS PERIOD TIME 3.15619E+07 5.26032E+05  8767.2      365.30      1.0001    
         TOTAL TIME 6.62887E+08 1.10481E+07 1.84135E+05  7672.3      21.006    
1

                               VOLUMETRIC BUDGET FOR SYSTEMS OF DELAY INTERBEDS
                                          AT END OF TIME STEP  6 IN STRESS PERIOD 22

          |   C U M U L A T I V E   V O L U M E S   L**3           | R A T E S   F O R  T H I S  T I M E  S T E P   L**3/T  |
   SYSTEM |    CHANGE IN     BOUNDARY                    PERCENT   |    CHANGE IN     BOUNDARY                    PERCENT   |
   NUMBER |     STORAGE        FLOW           SUM      DISCREPANCY |     STORAGE        FLOW           SUM      DISCREPANCY |
  --------|--------------------------------------------------------|--------------------------------------------------------|
      1     87445.        -87445.         0.0000         0.0000         9.3510        -9.3510        0.95367E-06    0.10199E-04
      2    0.12013E+09   -0.12013E+09    -8.0000       -0.66592E-05     15472.        -15472.       -0.97656E-03   -0.63119E-05
  --------|--------------------------------------------------------|--------------------------------------------------------|
 TOTALS:    0.12022E+09   -0.12022E+09    -8.0000       -0.66544E-05     15481.        -15481.       -0.97656E-03   -0.63081E-05
1
                            STRESS PERIOD NO.   23, LENGTH =   365.3000    
                            -----------------------------------------------

                              NUMBER OF TIME STEPS =     6

                               MULTIPLIER FOR DELT =     1.300

                            INITIAL TIME STEP SIZE =   28.63744    

 REUSING NON-PARAMETER WELLS FROM LAST STRESS PERIOD

     14 WELLS
 
 SOLVING FOR HEAD 

    43 ITERATIONS FOR TIME STEP   1 IN STRESS PERIOD   23

 MAXIMUM HEAD CHANGE FOR EACH ITERATION:

    HEAD CHANGE   HEAD CHANGE   HEAD CHANGE   HEAD CHANGE   HEAD CHANGE
  LAYER,ROW,COL LAYER,ROW,COL LAYER,ROW,COL LAYER,ROW,COL LAYER,ROW,COL
 ----------------------------------------------------------------------
      1.297         3.140         2.502        -1.256        -2.703    
  (  3,  1, 10) (  3,  1,  9) (  3,  1,  1) (  3,  1,  2) (  3,  2,  1)
    -0.2494       -0.6123        -1.384        -1.102        0.8560    
  (  3,  1, 10) (  3,  1,  1) (  3,  1, 10) (  3,  4,  1) (  3, 10,  1)
     0.6896E-01   -0.9903E-02   -0.4643E-02   -0.3118E-02   -0.1512E-02
  (  2,  3,  6) (  2,  1,  2) (  3,  2,  6) (  3,  1, 10) (  3,  2,  1)
    -0.1353E-02    0.8263E-03   -0.6662E-03    0.1406E-02    0.5838E-03
  (  3,  4,  1) (  3, 10, 10) (  3,  7,  1) (  3,  7, 10) (  3,  1,  5)
     0.1364E-02    0.1204E-02    0.1654E-02    0.1782E-02    0.1469E-02
  (  3,  8, 10) (  3,  2,  9) (  3, 10, 10) (  3,  1,  1) (  3,  1,  5)
     0.9810E-03    0.9433E-03    0.6768E-03    0.4833E-03    0.3612E-03
  (  3,  1,  5) (  3,  2,  9) (  3,  1,  5) (  3,  1,  5) (  3,  1,  5)
     0.2386E-03    0.2318E-03    0.1644E-03    0.1184E-03    0.8826E-04
  (  3,  1,  5) (  3,  1,  5) (  3,  1,  5) (  3,  1,  5) (  3,  1,  5)
     0.5881E-04    0.5558E-04    0.4058E-04    0.2921E-04    0.2181E-04
  (  3,  1,  5) (  3,  1,  5) (  3,  1,  5) (  3,  1,  5) (  3,  1,  5)
     0.1421E-04    0.1398E-04    0.9596E-05
  (  3,  1,  5) (  3,  1,  5) (  3,  1,  5)


 OUTPUT CONTROL FOR STRESS PERIOD   23   TIME STEP   1
    SAVE HEAD FOR ALL LAYERS

 HEAD WILL BE SAVED ON UNIT   21 AT END OF TIME STEP   1, STRESS PERIOD   23
 
 SOLVING FOR HEAD 
    41 ITERATIONS FOR TIME STEP   2 IN STRESS PERIOD   23

 MAXIMUM HEAD CHANGE FOR EACH ITERATION:

    HEAD CHANGE   HEAD CHANGE   HEAD CHANGE   HEAD CHANGE   HEAD CHANGE
  LAYER,ROW,COL LAYER,ROW,COL LAYER,ROW,COL LAYER,ROW,COL LAYER,ROW,COL
 ----------------------------------------------------------------------
      1.273         2.706         2.232       -0.8881        -2.734    
  (  3,  1,  1) (  3,  1,  7) (  3,  4,  5) (  3, 10, 10) (  3,  1,  1)
    -0.1967       -0.5207        -1.284        0.2118       -0.3756E-01
  (  3,  1, 10) (  3,  1,  1) (  3,  1, 10) (  3, 10,  1) (  2,  1,  1)
    -0.5551E-01   -0.1151E-01   -0.2505E-02   -0.1707E-02   -0.1435E-02
  (  2,  7,  1) (  2,  1,  2) (  3,  4,  6) (  3,  1,  1) (  3,  1, 10)
     0.9962E-03    0.7466E-03    0.2234E-02    0.1064E-02    0.2574E-02
  (  3, 10,  6) (  3,  8,  5) (  3,  6,  1) (  3,  8,  2) (  3,  1,  5)
     0.1255E-02    0.2548E-02    0.2263E-02    0.1591E-02    0.1169E-02
  (  3,  2, 10) (  3,  2,  2) (  3,  2,  1) (  3,  2, 10) (  3,  2, 10)
     0.7252E-03    0.7892E-03    0.5410E-03    0.3691E-03    0.2754E-03
  (  3,  2, 10) (  3,  2,  2) (  3,  2, 10) (  3,  2, 10) (  3,  2, 10)
     0.1690E-03    0.1819E-03    0.1240E-03    0.8757E-04    0.6461E-04
  (  3,  2, 10) (  3,  2,  2) (  3,  2,  1) (  3,  2, 10) (  3,  2, 10)
     0.4098E-04    0.4200E-04    0.2982E-04    0.2030E-04    0.1542E-04
  (  3,  2, 10) (  3,  2,  2) (  3,  2, 10) (  3,  2, 10) (  3,  2, 10)
     0.9816E-05
  (  3,  2, 10)


 OUTPUT CONTROL FOR STRESS PERIOD   23   TIME STEP   2
    SAVE HEAD FOR ALL LAYERS

 HEAD WILL BE SAVED ON UNIT   21 AT END OF TIME STEP   2, STRESS PERIOD   23
 
 SOLVING FOR HEAD 
    39 ITERATIONS FOR TIME STEP   3 IN STRESS PERIOD   23

 MAXIMUM HEAD CHANGE FOR EACH ITERATION:

    HEAD CHANGE   HEAD CHANGE   HEAD CHANGE   HEAD CHANGE   HEAD CHANGE
  LAYER,ROW,COL LAYER,ROW,COL LAYER,ROW,COL LAYER,ROW,COL LAYER,ROW,COL
 ----------------------------------------------------------------------
     0.9173         2.223         1.832       -0.7616        -2.721    
  (  3,  1,  1) (  3,  1, 10) (  3,  3,  8) (  3,  2, 10) (  3,  1,  1)
     0.1526       -0.3734        -1.006        0.4598        0.3383E-01
  (  2,  6,  1) (  3,  1,  1) (  3,  1, 10) (  3,  1, 10) (  2, 10,  9)
    -0.4435E-01   -0.1352E-01   -0.4307E-02   -0.1690E-02   -0.1406E-02
  (  2,  7,  1) (  2,  1,  2) (  3,  3,  9) (  3,  4, 10) (  3,  2,  7)
     0.1610E-02    0.1559E-02    0.1821E-02    0.2366E-02    0.2923E-02
  (  3,  1,  1) (  3, 10, 10) (  3,  1, 10) (  3, 10, 10) (  3,  1, 10)
     0.1683E-02    0.2039E-02    0.1441E-02    0.8952E-03    0.6429E-03
  (  3,  1,  1) (  3,  3,  4) (  3,  3,  4) (  3,  3,  4) (  3,  3,  4)
     0.3924E-03    0.4446E-03    0.3120E-03    0.1982E-03    0.1397E-03
  (  3,  1, 10) (  3,  3,  4) (  3,  3,  4) (  3,  3,  4) (  3,  3,  4)
     0.7819E-04    0.9680E-04    0.6969E-04    0.4357E-04    0.3164E-04
  (  3,  1,  1) (  3,  3,  4) (  3,  3,  4) (  3,  3,  4) (  3,  3,  4)
     0.1803E-04    0.2117E-04    0.1507E-04    0.9977E-05
  (  3,  1, 10) (  3,  3,  4) (  3,  3,  4) (  3,  3,  4)


 OUTPUT CONTROL FOR STRESS PERIOD   23   TIME STEP   3
    SAVE HEAD FOR ALL LAYERS

 HEAD WILL BE SAVED ON UNIT   21 AT END OF TIME STEP   3, STRESS PERIOD   23
 
 SOLVING FOR HEAD 
    36 ITERATIONS FOR TIME STEP   4 IN STRESS PERIOD   23

 MAXIMUM HEAD CHANGE FOR EACH ITERATION:

    HEAD CHANGE   HEAD CHANGE   HEAD CHANGE   HEAD CHANGE   HEAD CHANGE
  LAYER,ROW,COL LAYER,ROW,COL LAYER,ROW,COL LAYER,ROW,COL LAYER,ROW,COL
 ----------------------------------------------------------------------
     0.7940         1.617         1.678       -0.7215        -2.850    
  (  3,  1,  4) (  3,  1, 10) (  3,  1,  1) (  3,  1,  3) (  3,  1,  1)
     0.1583        0.6591E-01   -0.1857E-01   -0.1452E-01   -0.1052E-01
  (  2,  6,  1) (  2, 10,  2) (  3,  1, 10) (  3,  1,  1) (  3,  3,  7)
    -0.4745E-02   -0.6231E-02   -0.2975E-02   -0.1814E-02    0.2154E-02
  (  3,  1,  1) (  3,  2,  7) (  3,  6,  3) (  3,  3,  7) (  3,  1, 10)
     0.1393E-02    0.3041E-02    0.2771E-02    0.1759E-02    0.1269E-02
  (  3, 10,  1) (  3,  1,  3) (  3,  1,  4) (  3,  1,  5) (  3,  1,  3)
     0.6491E-03    0.8272E-03    0.5849E-03    0.3720E-03    0.2540E-03
  (  3,  1,  5) (  3,  1,  4) (  3,  1,  4) (  3,  1,  4) (  3,  1,  5)
     0.1430E-03    0.1653E-03    0.1246E-03    0.7498E-04    0.5460E-04
  (  3,  1,  4) (  3,  1,  3) (  3,  1,  4) (  3,  1,  5) (  3,  1,  3)
     0.3009E-04    0.3539E-04    0.2462E-04    0.1653E-04    0.1119E-04
  (  2,  7,  1) (  3,  1,  4) (  3,  1,  4) (  3,  1,  3) (  3,  1,  6)
     0.5566E-05
  (  2,  6,  1)


 OUTPUT CONTROL FOR STRESS PERIOD   23   TIME STEP   4
    SAVE HEAD FOR ALL LAYERS

 HEAD WILL BE SAVED ON UNIT   21 AT END OF TIME STEP   4, STRESS PERIOD   23
 
 SOLVING FOR HEAD 
    31 ITERATIONS FOR TIME STEP   5 IN STRESS PERIOD   23

 MAXIMUM HEAD CHANGE FOR EACH ITERATION:

    HEAD CHANGE   HEAD CHANGE   HEAD CHANGE   HEAD CHANGE   HEAD CHANGE
  LAYER,ROW,COL LAYER,ROW,COL LAYER,ROW,COL LAYER,ROW,COL LAYER,ROW,COL
 ----------------------------------------------------------------------
     0.5975        0.9251         1.043       -0.8404        -2.510    
  (  3,  1, 10) (  3,  2, 10) (  3,  1,  1) (  3,  2, 10) (  3,  1,  1)
     0.6966        0.3953        0.1331        0.6851E-01   -0.4673E-01
  (  3,  1, 10) (  3,  9,  6) (  2,  1,  8) (  2, 10,  1) (  2, 10, 10)
     0.7483E-01    0.1297E-01   -0.5809E-02   -0.3027E-02   -0.1974E-02
  (  2,  6,  1) (  2,  1,  2) (  3,  6,  3) (  3,  6,  2) (  3,  7,  3)
    -0.2088E-02   -0.1335E-02   -0.1037E-02   -0.5679E-03   -0.3609E-03
  (  2,  6,  1) (  3,  6,  2) (  3,  6,  3) (  3,  6,  1) (  3,  6,  2)
    -0.1671E-03   -0.2451E-03   -0.1967E-03   -0.1043E-03   -0.7017E-04
  (  3, 10, 10) (  3,  6,  2) (  3,  7,  3) (  3,  6,  2) (  3,  6,  2)
    -0.2846E-04   -0.4707E-04   -0.3667E-04   -0.2046E-04   -0.1278E-04
  (  3, 10,  1) (  3,  6,  2) (  3,  6,  2) (  3,  6,  2) (  3,  6,  3)
    -0.5461E-05
  (  3,  6,  1)


 OUTPUT CONTROL FOR STRESS PERIOD   23   TIME STEP   5
    SAVE HEAD FOR ALL LAYERS

 HEAD WILL BE SAVED ON UNIT   21 AT END OF TIME STEP   5, STRESS PERIOD   23
 
 SOLVING FOR HEAD 
    32 ITERATIONS FOR TIME STEP   6 IN STRESS PERIOD   23

 MAXIMUM HEAD CHANGE FOR EACH ITERATION:

    HEAD CHANGE   HEAD CHANGE   HEAD CHANGE   HEAD CHANGE   HEAD CHANGE
  LAYER,ROW,COL LAYER,ROW,COL LAYER,ROW,COL LAYER,ROW,COL LAYER,ROW,COL
 ----------------------------------------------------------------------
     0.3509        0.5609        0.5019       -0.9680        -1.224    
  (  3,  1,  5) (  3,  1,  9) (  3,  1,  1) (  3,  1, 10) (  3,  1,  1)
     0.5573        0.3454        0.1355        0.3627E-01   -0.3283E-01
  (  3,  1, 10) (  3,  2,  2) (  2,  3,  7) (  2, 10,  1) (  2, 10, 10)
     0.3216E-01   -0.1223E-01   -0.1006E-01   -0.5040E-02   -0.3014E-02
  (  2,  7,  1) (  3,  2,  7) (  3,  3,  5) (  3,  3,  6) (  3,  3,  6)
    -0.2423E-02   -0.2014E-02   -0.1733E-02   -0.8461E-03   -0.5330E-03
  (  2,  7,  1) (  3,  3,  6) (  3,  3,  5) (  3,  3,  6) (  3,  3,  6)
    -0.4213E-03   -0.3495E-03   -0.2928E-03   -0.1512E-03   -0.8969E-04
  (  2,  9,  1) (  3,  2,  7) (  3,  3,  5) (  3,  3,  6) (  3,  3,  6)
    -0.3969E-04   -0.6029E-04   -0.5179E-04   -0.2576E-04   -0.1700E-04
  (  2,  8,  1) (  3,  3,  6) (  3,  3,  6) (  3,  3,  7) (  3,  3,  6)
    -0.1174E-04   -0.4174E-05
  (  2,  9,  1) (  3,  3,  5)


 OUTPUT CONTROL FOR STRESS PERIOD   23   TIME STEP   6
    PRINT BUDGET
    PRINT HEAD FOR ALL LAYERS
    SAVE HEAD FOR ALL LAYERS
    SAVE DRAWDOWN FOR ALL LAYERS
1
              HEAD IN LAYER   1 AT END OF TIME STEP   6 IN STRESS PERIOD   23
  ---------------------------------------------------------------------------

           1       2       3       4       5       6       7       8       9      10
 ...................................................................................
   1    20.31   19.96   19.29   18.87   18.66   18.66   18.86   19.28   19.95   20.30
   2    19.30   18.79   18.36   18.06   17.91   17.91   18.06   18.36   18.78   19.29
   3    17.85   17.35   16.98   16.73   16.61   16.60   16.73   16.97   17.34   17.84
   4    15.89   15.45   15.15   14.96   14.86   14.86   14.95   15.14   15.44   15.88
   5    13.10   13.01   12.91   12.83   12.78   12.78   12.82   12.90   13.00   13.09
   6    10.66   10.63   10.59   10.56   10.54   10.54   10.56   10.59   10.63   10.65
   7     8.32    8.30    8.27    8.23    8.21    8.21    8.23    8.26    8.30    8.32
   8     6.06    6.01    5.93    5.84    5.79    5.79    5.84    5.93    6.01    6.06
   9     3.99    3.85    3.58    3.29    3.17    3.17    3.29    3.58    3.84    3.99
  10     2.51    2.15    1.36    0.00    0.00    0.00    0.00    1.36    2.14    2.51
1
              HEAD IN LAYER   2 AT END OF TIME STEP   6 IN STRESS PERIOD   23
  ---------------------------------------------------------------------------

           1       2       3       4       5       6       7       8       9      10
 ...................................................................................
   1    -3.49   -3.48   -3.48   -3.49   -3.51   -3.52   -3.54   -3.56   -3.59   -3.62
   2    -3.57   -2.65   -2.94   -3.43   -3.93   -4.30   -4.28   -3.94   -3.59   -3.76
   3    -3.69   -3.18   -3.67   -4.49   -5.64   -7.02   -6.82   -5.50   -4.55   -3.93
   4    -3.84   -3.47   -3.87   -4.47   -5.23   -6.08   -5.93   -5.22   -4.60   -4.09
   5    -4.02   -3.70   -3.87   -4.15   -4.44   -4.66   -4.69   -4.56   -4.38   -4.25
   6    -4.20   -3.91   -3.96   -4.07   -4.19   -4.28   -4.32   -4.30   -4.29   -4.40
   7    -4.40   -4.21   -4.24   -4.30   -4.36   -4.40   -4.42   -4.42   -4.43   -4.56
   8    -4.60   -4.68   -4.74   -4.81   -4.86   -4.88   -4.87   -4.84   -4.80   -4.72
   9    -4.80   -5.25   -5.44   -5.59   -5.67   -5.68   -5.63   -5.50   -5.33   -4.89
  10    -4.99   -5.03   -5.07   -5.10   -5.11   -5.12   -5.11   -5.09   -5.07   -5.04
1
              HEAD IN LAYER   3 AT END OF TIME STEP   6 IN STRESS PERIOD   23
  ---------------------------------------------------------------------------

           1       2       3       4       5       6       7       8       9      10
 ...................................................................................
   1   -23.41  -23.58  -23.90  -24.31  -24.75  -25.11  -25.27  -25.27  -25.19  -25.14
   2   -23.44  -23.70  -24.21  -24.95  -25.82  -26.60  -26.68  -26.28  -25.87  -25.64
   3   -23.13  -23.52  -24.36  -25.76  -28.00  -31.61  -30.76  -28.06  -26.59  -25.93
   4   -21.96  -22.28  -22.93  -23.95  -25.38  -27.26  -26.99  -25.65  -24.77  -24.34
   5   -20.18  -20.35  -20.69  -21.16  -21.70  -22.15  -22.24  -22.06  -21.84  -21.71
   6   -18.30  -18.39  -18.54  -18.75  -18.96  -19.14  -19.23  -19.24  -19.22  -19.19
   7   -16.67  -16.71  -16.78  -16.87  -16.97  -17.05  -17.11  -17.14  -17.16  -17.16
   8   -15.40  -15.42  -15.46  -15.50  -15.55  -15.59  -15.63  -15.66  -15.67  -15.68
   9   -14.55  -14.56  -14.58  -14.61  -14.63  -14.66  -14.68  -14.70  -14.71  -14.72
  10   -14.13  -14.13  -14.15  -14.16  -14.18  -14.20  -14.22  -14.23  -14.24  -14.24

 HEAD WILL BE SAVED ON UNIT   21 AT END OF TIME STEP   6, STRESS PERIOD   23

 DRAWDOWN WILL BE SAVED ON UNIT   22 AT END OF TIME STEP   6, STRESS PERIOD   23
1
  VOLUMETRIC BUDGET FOR ENTIRE MODEL AT END OF TIME STEP  6 IN STRESS PERIOD  23
  ------------------------------------------------------------------------------

     CUMULATIVE VOLUMES      L**3       RATES FOR THIS TIME STEP      L**3/T
     ------------------                 ------------------------

           IN:                                      IN:
           ---                                      ---
             STORAGE =    35690300.0000               STORAGE =        3431.5107
       CONSTANT HEAD =      442015.1250         CONSTANT HEAD =         122.6703
               WELLS =   241127968.0000                 WELLS =       30000.0000
    INST. IB STORAGE =    50747012.0000      INST. IB STORAGE =        5102.9946
    DELAY IB STORAGE =   125854584.0000      DELAY IB STORAGE =       15379.6514

            TOTAL IN =   453861888.0000              TOTAL IN =       54036.8281

          OUT:                                     OUT:
          ----                                     ----
             STORAGE =           0.0000               STORAGE =           0.0000
       CONSTANT HEAD =   212764112.0000         CONSTANT HEAD =       24036.9062
               WELLS =   241097968.0000                 WELLS =       30000.0000
    INST. IB STORAGE =           0.0000      INST. IB STORAGE =           0.0000
    DELAY IB STORAGE =           0.0000      DELAY IB STORAGE =           0.0000

           TOTAL OUT =   453862080.0000             TOTAL OUT =       54036.9062

            IN - OUT =        -192.0000              IN - OUT =      -7.8125E-02

 PERCENT DISCREPANCY =           0.00     PERCENT DISCREPANCY =           0.00






          TIME SUMMARY AT END OF TIME STEP   6 IN STRESS PERIOD   23
                    SECONDS     MINUTES      HOURS       DAYS        YEARS
                    -----------------------------------------------------------
   TIME STEP LENGTH 9.18681E+06 1.53113E+05  2551.9      106.33     0.29111    
 STRESS PERIOD TIME 3.15619E+07 5.26032E+05  8767.2      365.30      1.0001    
         TOTAL TIME 6.94449E+08 1.15741E+07 1.92902E+05  8037.6      22.006    
1

                               VOLUMETRIC BUDGET FOR SYSTEMS OF DELAY INTERBEDS
                                          AT END OF TIME STEP  6 IN STRESS PERIOD 23

          |   C U M U L A T I V E   V O L U M E S   L**3           | R A T E S   F O R  T H I S  T I M E  S T E P   L**3/T  |
   SYSTEM |    CHANGE IN     BOUNDARY                    PERCENT   |    CHANGE IN     BOUNDARY                    PERCENT   |
   NUMBER |     STORAGE        FLOW           SUM      DISCREPANCY |     STORAGE        FLOW           SUM      DISCREPANCY |
  --------|--------------------------------------------------------|--------------------------------------------------------|
      1     90777.        -90777.         0.0000         0.0000         9.1679        -9.1679        0.38147E-05    0.41609E-04
      2    0.12576E+09   -0.12576E+09    -8.0000       -0.63611E-05     15370.        -15370.        0.58594E-02    0.38121E-04
  --------|--------------------------------------------------------|--------------------------------------------------------|
 TOTALS:    0.12585E+09   -0.12585E+09    -8.0000       -0.63565E-05     15380.        -15380.        0.58594E-02    0.38098E-04
1
                            STRESS PERIOD NO.   24, LENGTH =   365.3000    
                            -----------------------------------------------

                              NUMBER OF TIME STEPS =     6

                               MULTIPLIER FOR DELT =     1.300

                            INITIAL TIME STEP SIZE =   28.63744    

 REUSING NON-PARAMETER WELLS FROM LAST STRESS PERIOD

     14 WELLS
 
 SOLVING FOR HEAD 

    43 ITERATIONS FOR TIME STEP   1 IN STRESS PERIOD   24

 MAXIMUM HEAD CHANGE FOR EACH ITERATION:

    HEAD CHANGE   HEAD CHANGE   HEAD CHANGE   HEAD CHANGE   HEAD CHANGE
  LAYER,ROW,COL LAYER,ROW,COL LAYER,ROW,COL LAYER,ROW,COL LAYER,ROW,COL
 ----------------------------------------------------------------------
      1.340         3.519         2.986        -1.413        -2.731    
  (  3,  1,  8) (  3,  1, 10) (  3,  1,  1) (  3,  1,  3) (  3,  1,  1)
    -0.2310       -0.6066        -1.358        -1.079        0.8349    
  (  3,  1, 10) (  3,  1,  1) (  3,  1, 10) (  3,  4,  1) (  3, 10, 10)
     0.1498       -0.6984E-02   -0.4546E-02   -0.3241E-02   -0.1519E-02
  (  2,  3,  7) (  2,  1,  2) (  3,  2,  6) (  3,  5,  6) (  3,  2,  1)
    -0.1497E-02    0.8747E-03   -0.8531E-03    0.1396E-02    0.4798E-03
  (  3,  4,  6) (  3, 10,  1) (  3,  5,  6) (  3,  8,  2) (  3,  9,  5)
     0.1340E-02    0.1163E-02    0.1783E-02    0.1805E-02    0.1372E-02
  (  3, 10,  7) (  3,  3,  2) (  3, 10, 10) (  3,  1,  8) (  3,  1,  8)
     0.9277E-03    0.8994E-03    0.6198E-03    0.4417E-03    0.3275E-03
  (  3,  1, 10) (  3,  2,  9) (  3,  1,  8) (  3,  1,  8) (  3,  1,  4)
     0.2135E-03    0.2175E-03    0.1499E-03    0.1060E-03    0.7916E-04
  (  3,  1,  8) (  3,  2,  8) (  3,  2,  9) (  3,  1,  4) (  3,  1,  8)
     0.5335E-04    0.5281E-04    0.3649E-04    0.2580E-04    0.1955E-04
  (  3,  1, 10) (  3,  2,  9) (  3,  1,  4) (  3,  2, 10) (  3,  1,  8)
     0.1220E-04    0.1230E-04    0.7794E-05
  (  3,  2, 10) (  3,  1,  8) (  3,  1,  9)


 OUTPUT CONTROL FOR STRESS PERIOD   24   TIME STEP   1
    SAVE HEAD FOR ALL LAYERS

 HEAD WILL BE SAVED ON UNIT   21 AT END OF TIME STEP   1, STRESS PERIOD   24
 
 SOLVING FOR HEAD 
    41 ITERATIONS FOR TIME STEP   2 IN STRESS PERIOD   24

 MAXIMUM HEAD CHANGE FOR EACH ITERATION:

    HEAD CHANGE   HEAD CHANGE   HEAD CHANGE   HEAD CHANGE   HEAD CHANGE
  LAYER,ROW,COL LAYER,ROW,COL LAYER,ROW,COL LAYER,ROW,COL LAYER,ROW,COL
 ----------------------------------------------------------------------
      1.118         2.913         2.242       -0.9935        -2.818    
  (  3,  1,  1) (  3,  1, 10) (  3,  2,  1) (  3,  1,  3) (  3,  1,  1)
    -0.1890       -0.4705        -1.196        0.2103       -0.3972E-01
  (  3,  1, 10) (  3,  1,  1) (  3,  1, 10) (  3, 10,  1) (  2,  1,  1)
    -0.5191E-01   -0.1282E-01   -0.1284E-02   -0.1227E-02   -0.1446E-02
  (  2,  7,  1) (  2,  1,  2) (  3,  6,  3) (  3,  2,  1) (  3,  2,  2)
     0.1266E-02    0.4473E-03    0.2457E-02    0.1010E-02    0.2471E-02
  (  3, 10,  1) (  3,  9,  5) (  3,  1, 10) (  3,  4,  5) (  3,  3,  1)
     0.1203E-02    0.2604E-02    0.2047E-02    0.1458E-02    0.1085E-02
  (  3,  1,  4) (  3,  1, 10) (  3,  3,  5) (  3,  1,  4) (  3,  1,  4)
     0.6763E-03    0.6954E-03    0.4943E-03    0.3433E-03    0.2506E-03
  (  3,  1,  4) (  3,  3,  5) (  3,  1,  4) (  3,  1,  4) (  3,  1,  4)
     0.1576E-03    0.1636E-03    0.1154E-03    0.7912E-04    0.5966E-04
  (  3,  1,  4) (  3,  1,  4) (  3,  1,  4) (  3,  1,  4) (  3,  1,  4)
     0.3732E-04    0.3736E-04    0.2699E-04    0.1927E-04    0.1358E-04
  (  3,  1,  4) (  3,  1,  4) (  3,  1,  4) (  3,  1,  4) (  3,  1,  4)
     0.8740E-05
  (  3,  1,  4)


 OUTPUT CONTROL FOR STRESS PERIOD   24   TIME STEP   2
    SAVE HEAD FOR ALL LAYERS

 HEAD WILL BE SAVED ON UNIT   21 AT END OF TIME STEP   2, STRESS PERIOD   24
 
 SOLVING FOR HEAD 
    39 ITERATIONS FOR TIME STEP   3 IN STRESS PERIOD   24

 MAXIMUM HEAD CHANGE FOR EACH ITERATION:

    HEAD CHANGE   HEAD CHANGE   HEAD CHANGE   HEAD CHANGE   HEAD CHANGE
  LAYER,ROW,COL LAYER,ROW,COL LAYER,ROW,COL LAYER,ROW,COL LAYER,ROW,COL
 ----------------------------------------------------------------------
      1.156         2.355         1.845       -0.8213        -2.760    
  (  3,  1,  1) (  3,  1, 10) (  3,  3,  6) (  3,  1,  9) (  3,  1,  1)
     0.1649       -0.3550       -0.9530        0.4849        0.3306E-01
  (  2,  5,  1) (  3,  1,  1) (  3,  1, 10) (  3, 10,  1) (  2, 10,  9)
    -0.4298E-01   -0.1336E-01   -0.4056E-02   -0.1677E-02   -0.1059E-02
  (  2,  6,  1) (  2,  1,  2) (  3,  3,  9) (  3,  6,  1) (  3,  2,  1)
     0.1184E-02    0.1683E-02    0.1834E-02    0.2546E-02    0.2872E-02
  (  3,  1,  1) (  3, 10, 10) (  3,  1,  3) (  3, 10, 10) (  3,  1,  2)
     0.1670E-02    0.1995E-02    0.1365E-02    0.8646E-03    0.6195E-03
  (  3,  1,  1) (  3,  2,  2) (  3,  2,  4) (  3,  1,  2) (  3,  1,  3)
     0.3527E-03    0.4240E-03    0.2885E-03    0.1868E-03    0.1365E-03
  (  3,  1,  3) (  3,  2,  4) (  3,  2,  4) (  3,  1,  3) (  3,  1,  2)
     0.7589E-04    0.9240E-04    0.6358E-04    0.4107E-04    0.2923E-04
  (  3,  1,  1) (  3,  2,  2) (  3,  2,  4) (  3,  1,  2) (  3,  1,  3)
     0.1740E-04    0.1951E-04    0.1435E-04    0.8242E-05
  (  3,  1,  6) (  3,  2,  2) (  3,  1,  3) (  3,  2,  4)


 OUTPUT CONTROL FOR STRESS PERIOD   24   TIME STEP   3
    SAVE HEAD FOR ALL LAYERS

 HEAD WILL BE SAVED ON UNIT   21 AT END OF TIME STEP   3, STRESS PERIOD   24
 
 SOLVING FOR HEAD 
    36 ITERATIONS FOR TIME STEP   4 IN STRESS PERIOD   24

 MAXIMUM HEAD CHANGE FOR EACH ITERATION:

    HEAD CHANGE   HEAD CHANGE   HEAD CHANGE   HEAD CHANGE   HEAD CHANGE
  LAYER,ROW,COL LAYER,ROW,COL LAYER,ROW,COL LAYER,ROW,COL LAYER,ROW,COL
 ----------------------------------------------------------------------
      1.001         1.343         1.541       -0.7873        -2.769    
  (  3,  1, 10) (  3,  2,  5) (  3,  3,  5) (  3,  1,  4) (  3,  1,  1)
     0.2536        0.4989E-01   -0.1634E-01   -0.1413E-01   -0.1016E-01
  (  2,  3,  6) (  2, 10,  2) (  3,  2,  1) (  3,  1,  9) (  3,  3,  5)
    -0.4642E-02   -0.6383E-02   -0.2865E-02   -0.1720E-02    0.1870E-02
  (  3,  1,  1) (  3,  2,  6) (  3,  6,  5) (  3,  3,  7) (  3,  1, 10)
     0.1699E-02    0.3140E-02    0.2635E-02    0.1709E-02    0.1217E-02
  (  3, 10,  1) (  3,  1,  1) (  3,  1, 10) (  3,  1,  1) (  3,  1,  1)
     0.6725E-03    0.8111E-03    0.5865E-03    0.3490E-03    0.2431E-03
  (  3,  1,  1) (  3,  1, 10) (  3,  1,  1) (  3,  1,  1) (  3,  1, 10)
     0.1394E-03    0.1686E-03    0.1153E-03    0.7232E-04    0.5195E-04
  (  3,  1, 10) (  3,  1,  1) (  3,  1, 10) (  3,  1,  1) (  3,  1,  1)
     0.2994E-04    0.3286E-04    0.2480E-04    0.1512E-04    0.1045E-04
  (  2,  7,  1) (  3,  1,  2) (  3,  1,  1) (  3,  1,  1) (  3,  1, 10)
     0.5358E-05
  (  2,  6,  1)


 OUTPUT CONTROL FOR STRESS PERIOD   24   TIME STEP   4
    SAVE HEAD FOR ALL LAYERS

 HEAD WILL BE SAVED ON UNIT   21 AT END OF TIME STEP   4, STRESS PERIOD   24
 
 SOLVING FOR HEAD 
    31 ITERATIONS FOR TIME STEP   5 IN STRESS PERIOD   24

 MAXIMUM HEAD CHANGE FOR EACH ITERATION:

    HEAD CHANGE   HEAD CHANGE   HEAD CHANGE   HEAD CHANGE   HEAD CHANGE
  LAYER,ROW,COL LAYER,ROW,COL LAYER,ROW,COL LAYER,ROW,COL LAYER,ROW,COL
 ----------------------------------------------------------------------
     0.5765        0.9071         1.014       -0.7849        -2.511    
  (  3,  1, 10) (  3,  1,  6) (  3,  2,  1) (  3,  3, 10) (  3,  1,  1)
     0.6890        0.3907        0.1328        0.6823E-01   -0.4667E-01
  (  3,  1, 10) (  3,  9,  6) (  2,  1,  7) (  2, 10,  1) (  2, 10, 10)
     0.7473E-01    0.1271E-01   -0.6237E-02   -0.3318E-02   -0.2160E-02
  (  2,  6,  1) (  2,  1,  2) (  3,  6,  2) (  3,  6,  1) (  3,  7,  2)
    -0.1884E-02   -0.1467E-02   -0.1140E-02   -0.6256E-03   -0.4082E-03
  (  2,  6,  1) (  3,  6,  2) (  3,  6,  2) (  3,  6,  1) (  3,  6,  2)
    -0.1698E-03   -0.2771E-03   -0.2188E-03   -0.1197E-03   -0.7901E-04
  (  3,  6,  1) (  3,  6,  2) (  3,  6,  2) (  3,  6,  2) (  3,  6,  2)
    -0.3277E-04   -0.5355E-04   -0.4141E-04   -0.2397E-04   -0.1518E-04
  (  3,  6,  1) (  3,  6,  2) (  3,  6,  2) (  3,  6,  2) (  3,  6,  2)
    -0.6783E-05
  (  3,  6,  1)


 OUTPUT CONTROL FOR STRESS PERIOD   24   TIME STEP   5
    SAVE HEAD FOR ALL LAYERS

 HEAD WILL BE SAVED ON UNIT   21 AT END OF TIME STEP   5, STRESS PERIOD   24
 
 SOLVING FOR HEAD 
    32 ITERATIONS FOR TIME STEP   6 IN STRESS PERIOD   24

 MAXIMUM HEAD CHANGE FOR EACH ITERATION:

    HEAD CHANGE   HEAD CHANGE   HEAD CHANGE   HEAD CHANGE   HEAD CHANGE
  LAYER,ROW,COL LAYER,ROW,COL LAYER,ROW,COL LAYER,ROW,COL LAYER,ROW,COL
 ----------------------------------------------------------------------
     0.3052        0.6061        0.4731       -0.9545        -1.184    
  (  3,  1,  6) (  3,  1, 10) (  3,  2,  1) (  3,  2, 10) (  3,  1,  1)
     0.5497        0.3363        0.9794E-01    0.3588E-01   -0.3233E-01
  (  3,  1, 10) (  3,  2,  2) (  2,  1,  9) (  2, 10,  1) (  2, 10, 10)
     0.3191E-01   -0.1210E-01   -0.9952E-02   -0.4971E-02   -0.2977E-02
  (  2,  7,  1) (  3,  2,  6) (  3,  3,  4) (  3,  2,  6) (  3,  3,  6)
    -0.2376E-02   -0.1990E-02   -0.1712E-02   -0.8349E-03   -0.5232E-03
  (  2,  7,  1) (  3,  2,  3) (  3,  3,  5) (  3,  3,  6) (  3,  3,  6)
    -0.4195E-03   -0.3446E-03   -0.2895E-03   -0.1478E-03   -0.8917E-04
  (  2,  9,  1) (  3,  2,  6) (  3,  3,  5) (  3,  3,  6) (  3,  3,  6)
    -0.3975E-04   -0.5919E-04   -0.5118E-04   -0.2569E-04   -0.1629E-04
  (  2,  8,  1) (  3,  3,  6) (  3,  3,  6) (  3,  3,  6) (  3,  3,  6)
    -0.1171E-04   -0.3957E-05
  (  2,  9,  1) (  3,  3,  4)


 OUTPUT CONTROL FOR STRESS PERIOD   24   TIME STEP   6
    PRINT BUDGET
    PRINT HEAD FOR ALL LAYERS
    SAVE HEAD FOR ALL LAYERS
    SAVE DRAWDOWN FOR ALL LAYERS
1
              HEAD IN LAYER   1 AT END OF TIME STEP   6 IN STRESS PERIOD   24
  ---------------------------------------------------------------------------

           1       2       3       4       5       6       7       8       9      10
 ...................................................................................
   1    20.23   19.87   19.20   18.78   18.57   18.57   18.78   19.20   19.87   20.22
   2    19.21   18.71   18.28   17.98   17.82   17.82   17.97   18.27   18.70   19.20
   3    17.77   17.27   16.90   16.65   16.52   16.52   16.64   16.89   17.26   17.76
   4    15.81   15.37   15.07   14.88   14.78   14.78   14.87   15.06   15.36   15.80
   5    13.03   12.94   12.84   12.75   12.71   12.71   12.75   12.83   12.93   13.02
   6    10.60   10.57   10.53   10.49   10.47   10.47   10.49   10.53   10.56   10.59
   7     8.27    8.25    8.21    8.18    8.16    8.16    8.18    8.21    8.24    8.26
   8     6.02    5.97    5.89    5.80    5.75    5.75    5.80    5.88    5.97    6.02
   9     3.96    3.82    3.56    3.26    3.14    3.14    3.26    3.56    3.82    3.96
  10     2.49    2.13    1.35    0.00    0.00    0.00    0.00    1.34    2.13    2.49
1
              HEAD IN LAYER   2 AT END OF TIME STEP   6 IN STRESS PERIOD   24
  ---------------------------------------------------------------------------

           1       2       3       4       5       6       7       8       9      10
 ...................................................................................
   1    -3.79   -3.78   -3.78   -3.79   -3.81   -3.82   -3.84   -3.86   -3.89   -3.91
   2    -3.87   -2.96   -3.26   -3.75   -4.25   -4.62   -4.59   -4.26   -3.91   -4.06
   3    -3.99   -3.49   -3.99   -4.80   -5.94   -7.09   -7.01   -5.81   -4.86   -4.22
   4    -4.13   -3.78   -4.18   -4.78   -5.53   -6.38   -6.24   -5.53   -4.90   -4.38
   5    -4.30   -4.00   -4.17   -4.44   -4.73   -4.96   -4.98   -4.85   -4.68   -4.53
   6    -4.48   -4.19   -4.24   -4.35   -4.47   -4.56   -4.60   -4.59   -4.57   -4.68
   7    -4.67   -4.48   -4.50   -4.57   -4.62   -4.67   -4.69   -4.69   -4.70   -4.84
   8    -4.87   -4.93   -5.00   -5.06   -5.11   -5.13   -5.13   -5.10   -5.06   -4.99
   9    -5.07   -5.50   -5.68   -5.83   -5.91   -5.92   -5.87   -5.74   -5.57   -5.15
  10    -5.25   -5.29   -5.33   -5.36   -5.37   -5.38   -5.37   -5.35   -5.33   -5.30
1
              HEAD IN LAYER   3 AT END OF TIME STEP   6 IN STRESS PERIOD   24
  ---------------------------------------------------------------------------

           1       2       3       4       5       6       7       8       9      10
 ...................................................................................
   1   -23.97  -24.14  -24.46  -24.87  -25.31  -25.67  -25.83  -25.83  -25.76  -25.70
   2   -23.99  -24.25  -24.77  -25.50  -26.37  -27.15  -27.24  -26.83  -26.43  -26.19
   3   -23.68  -24.07  -24.90  -26.30  -28.54  -32.16  -31.31  -28.61  -27.14  -26.48
   4   -22.49  -22.81  -23.46  -24.48  -25.91  -27.79  -27.52  -26.18  -25.30  -24.87
   5   -20.69  -20.87  -21.21  -21.68  -22.21  -22.67  -22.76  -22.58  -22.36  -22.23
   6   -18.80  -18.88  -19.04  -19.25  -19.46  -19.64  -19.73  -19.74  -19.71  -19.69
   7   -17.15  -17.19  -17.26  -17.35  -17.45  -17.53  -17.59  -17.62  -17.64  -17.64
   8   -15.87  -15.89  -15.92  -15.97  -16.01  -16.06  -16.10  -16.12  -16.14  -16.14
   9   -15.01  -15.02  -15.04  -15.06  -15.09  -15.12  -15.14  -15.16  -15.17  -15.17
  10   -14.58  -14.58  -14.60  -14.61  -14.63  -14.65  -14.67  -14.68  -14.69  -14.69

 HEAD WILL BE SAVED ON UNIT   21 AT END OF TIME STEP   6, STRESS PERIOD   24

 DRAWDOWN WILL BE SAVED ON UNIT   22 AT END OF TIME STEP   6, STRESS PERIOD   24
1
  VOLUMETRIC BUDGET FOR ENTIRE MODEL AT END OF TIME STEP  6 IN STRESS PERIOD  24
  ------------------------------------------------------------------------------

     CUMULATIVE VOLUMES      L**3       RATES FOR THIS TIME STEP      L**3/T
     ------------------                 ------------------------

           IN:                                      IN:
           ---                                      ---
             STORAGE =    36930048.0000               STORAGE =        3368.3376
       CONSTANT HEAD =      488189.8750         CONSTANT HEAD =         128.8970
               WELLS =   252086960.0000                 WELLS =       30000.0000
    INST. IB STORAGE =    52604932.0000      INST. IB STORAGE =        5073.3633
    DELAY IB STORAGE =   131450208.0000      DELAY IB STORAGE =       15278.4443

            TOTAL IN =   473560352.0000              TOTAL IN =       53849.0430

          OUT:                                     OUT:
          ----                                     ----
             STORAGE =           0.0000               STORAGE =           0.0000
       CONSTANT HEAD =   221503600.0000         CONSTANT HEAD =       23849.1133
               WELLS =   252056960.0000                 WELLS =       30000.0000
    INST. IB STORAGE =           0.0000      INST. IB STORAGE =           0.0000
    DELAY IB STORAGE =           0.0000      DELAY IB STORAGE =           0.0000

           TOTAL OUT =   473560576.0000             TOTAL OUT =       53849.1133

            IN - OUT =        -224.0000              IN - OUT =      -7.0313E-02

 PERCENT DISCREPANCY =           0.00     PERCENT DISCREPANCY =           0.00






          TIME SUMMARY AT END OF TIME STEP   6 IN STRESS PERIOD   24
                    SECONDS     MINUTES      HOURS       DAYS        YEARS
                    -----------------------------------------------------------
   TIME STEP LENGTH 9.18681E+06 1.53113E+05  2551.9      106.33     0.29111    
 STRESS PERIOD TIME 3.15619E+07 5.26032E+05  8767.2      365.30      1.0001    
         TOTAL TIME 7.26010E+08 1.21002E+07 2.01670E+05  8402.9      23.006    
1

                               VOLUMETRIC BUDGET FOR SYSTEMS OF DELAY INTERBEDS
                                          AT END OF TIME STEP  6 IN STRESS PERIOD 24

          |   C U M U L A T I V E   V O L U M E S   L**3           | R A T E S   F O R  T H I S  T I M E  S T E P   L**3/T  |
   SYSTEM |    CHANGE IN     BOUNDARY                    PERCENT   |    CHANGE IN     BOUNDARY                    PERCENT   |
   NUMBER |     STORAGE        FLOW           SUM      DISCREPANCY |     STORAGE        FLOW           SUM      DISCREPANCY |
  --------|--------------------------------------------------------|--------------------------------------------------------|
      1     94048.        -94048.         0.0000         0.0000         8.9709        -8.9709       -0.19073E-05   -0.21261E-04
      2    0.13136E+09   -0.13136E+09    -8.0000       -0.60903E-05     15269.        -15269.        0.29297E-02    0.19187E-04
  --------|--------------------------------------------------------|--------------------------------------------------------|
 TOTALS:    0.13145E+09   -0.13145E+09    -8.0000       -0.60860E-05     15278.        -15278.        0.29297E-02    0.19175E-04
1
                            STRESS PERIOD NO.   25, LENGTH =   365.3000    
                            -----------------------------------------------

                              NUMBER OF TIME STEPS =     6

                               MULTIPLIER FOR DELT =     1.300

                            INITIAL TIME STEP SIZE =   28.63744    

 REUSING NON-PARAMETER WELLS FROM LAST STRESS PERIOD

     14 WELLS
 
 SOLVING FOR HEAD 

    43 ITERATIONS FOR TIME STEP   1 IN STRESS PERIOD   25

 MAXIMUM HEAD CHANGE FOR EACH ITERATION:

    HEAD CHANGE   HEAD CHANGE   HEAD CHANGE   HEAD CHANGE   HEAD CHANGE
  LAYER,ROW,COL LAYER,ROW,COL LAYER,ROW,COL LAYER,ROW,COL LAYER,ROW,COL
 ----------------------------------------------------------------------
      1.338         3.575         2.475        -1.259        -2.640    
  (  3,  2,  1) (  3,  1, 10) (  3,  2,  2) (  3,  1, 10) (  3,  1,  1)
    -0.2203       -0.5854        -1.315        -1.035        0.8087    
  (  3,  1, 10) (  3,  1,  1) (  3,  1, 10) (  3,  4,  1) (  3, 10,  1)
    -0.5561E-01   -0.8993E-02   -0.4334E-02   -0.3350E-02   -0.1193E-02
  (  2,  7,  1) (  2,  1,  2) (  3,  2,  3) (  3,  1, 10) (  3,  3,  1)
    -0.1552E-02    0.7040E-03   -0.6254E-03    0.1347E-02    0.7197E-03
  (  3,  1, 10) (  3, 10,  1) (  3, 10,  4) (  3,  5,  5) (  3,  2,  6)
     0.1461E-02    0.1301E-02    0.1583E-02    0.1588E-02    0.1427E-02
  (  3, 10, 10) (  3,  8,  1) (  3, 10, 10) (  3,  1,  1) (  3,  2,  6)
     0.8899E-03    0.9560E-03    0.6666E-03    0.4700E-03    0.3511E-03
  (  3,  2,  6) (  3,  2,  6) (  3,  2,  6) (  3,  2,  6) (  3,  2,  6)
     0.2167E-03    0.2350E-03    0.1635E-03    0.1149E-03    0.8584E-04
  (  3,  2,  6) (  3,  2,  6) (  3,  2,  6) (  3,  2,  6) (  3,  2,  6)
     0.5349E-04    0.5758E-04    0.3971E-04    0.2828E-04    0.2166E-04
  (  3,  2,  6) (  3,  2,  6) (  3,  2,  7) (  3,  2,  6) (  3,  2,  6)
     0.1257E-04    0.1361E-04    0.8737E-05
  (  3,  2,  6) (  3,  2,  2) (  3,  2,  7)


 OUTPUT CONTROL FOR STRESS PERIOD   25   TIME STEP   1
    SAVE HEAD FOR ALL LAYERS

 HEAD WILL BE SAVED ON UNIT   21 AT END OF TIME STEP   1, STRESS PERIOD   25
 
 SOLVING FOR HEAD 
    41 ITERATIONS FOR TIME STEP   2 IN STRESS PERIOD   25

 MAXIMUM HEAD CHANGE FOR EACH ITERATION:

    HEAD CHANGE   HEAD CHANGE   HEAD CHANGE   HEAD CHANGE   HEAD CHANGE
  LAYER,ROW,COL LAYER,ROW,COL LAYER,ROW,COL LAYER,ROW,COL LAYER,ROW,COL
 ----------------------------------------------------------------------
      1.311         2.811         2.508        -1.028        -2.788    
  (  3, 10, 10) (  3,  1, 10) (  3,  1,  1) (  3,  1,  3) (  3,  1,  1)
    -0.1755       -0.4774        -1.207        0.2052       -0.3775E-01
  (  3,  1, 10) (  3,  1,  1) (  3,  1, 10) (  3, 10,  1) (  2,  1,  1)
    -0.5191E-01   -0.1106E-01   -0.2766E-02   -0.1555E-02   -0.1446E-02
  (  2,  7,  1) (  2,  1,  2) (  3,  4,  5) (  3,  1,  4) (  3,  1,  7)
     0.1030E-02    0.4947E-03    0.2121E-02    0.1134E-02    0.2458E-02
  (  3,  4,  1) (  3,  8,  2) (  3,  5,  2) (  3, 10,  1) (  3,  1,  1)
     0.1112E-02    0.2420E-02    0.2089E-02    0.1497E-02    0.1093E-02
  (  3,  2,  7) (  3,  1, 10) (  3,  2,  1) (  3,  2,  7) (  3,  2,  7)
     0.6832E-03    0.7453E-03    0.5173E-03    0.3455E-03    0.2542E-03
  (  3,  1, 10) (  3,  2,  7) (  3,  2,  7) (  3,  2,  7) (  3,  2,  7)
     0.1467E-03    0.1755E-03    0.1188E-03    0.8128E-04    0.5899E-04
  (  3,  1,  1) (  3,  2,  7) (  3,  2,  7) (  3,  2,  7) (  3,  2,  7)
     0.3555E-04    0.3965E-04    0.2792E-04    0.1885E-04    0.1365E-04
  (  3,  1, 10) (  3,  2,  7) (  3,  2,  7) (  3,  2,  7) (  3,  2,  7)
     0.7974E-05
  (  3,  2,  7)


 OUTPUT CONTROL FOR STRESS PERIOD   25   TIME STEP   2
    SAVE HEAD FOR ALL LAYERS

 HEAD WILL BE SAVED ON UNIT   21 AT END OF TIME STEP   2, STRESS PERIOD   25
 
 SOLVING FOR HEAD 
    40 ITERATIONS FOR TIME STEP   3 IN STRESS PERIOD   25

 MAXIMUM HEAD CHANGE FOR EACH ITERATION:

    HEAD CHANGE   HEAD CHANGE   HEAD CHANGE   HEAD CHANGE   HEAD CHANGE
  LAYER,ROW,COL LAYER,ROW,COL LAYER,ROW,COL LAYER,ROW,COL LAYER,ROW,COL
 ----------------------------------------------------------------------
     0.8892         2.205         2.032       -0.8009        -2.817    
  (  3,  3, 10) (  3,  1, 10) (  3,  2,  1) (  3, 10, 10) (  3,  1,  1)
     0.1636       -0.3486       -0.9397        0.4706        0.3272E-01
  (  2,  5,  1) (  3,  1,  1) (  3,  1, 10) (  3,  1, 10) (  2, 10,  9)
    -0.4173E-01   -0.1280E-01   -0.4215E-02   -0.1942E-02   -0.1281E-02
  (  2,  7,  1) (  2,  1,  2) (  3,  3,  4) (  3,  5,  6) (  3,  3,  4)
     0.1195E-02    0.1670E-02    0.1660E-02    0.2488E-02    0.2775E-02
  (  3,  2,  1) (  3, 10,  3) (  3,  1,  4) (  3, 10,  5) (  3,  1,  2)
     0.1700E-02    0.2050E-02    0.1399E-02    0.9288E-03    0.6781E-03
  (  3,  2, 10) (  3,  2, 10) (  3,  2, 10) (  3,  2, 10) (  3,  2, 10)
     0.3865E-03    0.4434E-03    0.3134E-03    0.2078E-03    0.1486E-03
  (  3,  2, 10) (  3,  2, 10) (  3,  2, 10) (  3,  2, 10) (  3,  2, 10)
     0.8803E-04    0.9973E-04    0.6913E-04    0.4573E-04    0.3388E-04
  (  3,  2, 10) (  3,  2, 10) (  3,  2, 10) (  3,  2, 10) (  3,  2, 10)
     0.2028E-04    0.2239E-04    0.1624E-04    0.1058E-04    0.3637E-05
  (  3,  2, 10) (  3,  2, 10) (  3,  2, 10) (  3,  2, 10) (  3,  2, 10)


 OUTPUT CONTROL FOR STRESS PERIOD   25   TIME STEP   3
    SAVE HEAD FOR ALL LAYERS

 HEAD WILL BE SAVED ON UNIT   21 AT END OF TIME STEP   3, STRESS PERIOD   25
 
 SOLVING FOR HEAD 
    35 ITERATIONS FOR TIME STEP   4 IN STRESS PERIOD   25

 MAXIMUM HEAD CHANGE FOR EACH ITERATION:

    HEAD CHANGE   HEAD CHANGE   HEAD CHANGE   HEAD CHANGE   HEAD CHANGE
  LAYER,ROW,COL LAYER,ROW,COL LAYER,ROW,COL LAYER,ROW,COL LAYER,ROW,COL
 ----------------------------------------------------------------------
     0.7194         1.418         1.716       -0.7031        -2.829    
  (  3,  1,  5) (  3,  1,  9) (  3,  1,  1) (  3, 10, 10) (  3,  1,  1)
     0.5044        0.6354E-01   -0.1642E-01   -0.1395E-01   -0.1033E-01
  (  2,  3,  6) (  2, 10,  2) (  3,  1,  1) (  3,  1,  1) (  3,  3,  7)
    -0.4405E-02   -0.6181E-02   -0.3057E-02   -0.1769E-02    0.1621E-02
  (  3,  1,  1) (  3,  2,  7) (  3,  6,  5) (  3,  2,  9) (  3,  1,  1)
     0.1546E-02    0.2826E-02    0.2573E-02    0.1628E-02    0.1160E-02
  (  3, 10,  1) (  3,  1,  5) (  3,  1,  5) (  3,  1,  5) (  3,  1,  4)
     0.5915E-03    0.7789E-03    0.5401E-03    0.3397E-03    0.2339E-03
  (  3,  1,  5) (  3,  1, 10) (  3,  1,  5) (  3,  1,  4) (  3,  1,  5)
     0.1358E-03    0.1518E-03    0.1145E-03    0.6924E-04    0.5009E-04
  (  3,  1, 10) (  3,  2,  5) (  3,  1,  5) (  3,  1,  5) (  3,  1,  4)
     0.2740E-04    0.3259E-04    0.2308E-04    0.1443E-04    0.9724E-05
  (  2,  7,  1) (  3,  1, 10) (  3,  1,  5) (  3,  1,  4) (  3,  1,  5)


 OUTPUT CONTROL FOR STRESS PERIOD   25   TIME STEP   4
    SAVE HEAD FOR ALL LAYERS

 HEAD WILL BE SAVED ON UNIT   21 AT END OF TIME STEP   4, STRESS PERIOD   25
 
 SOLVING FOR HEAD 
    31 ITERATIONS FOR TIME STEP   5 IN STRESS PERIOD   25

 MAXIMUM HEAD CHANGE FOR EACH ITERATION:

    HEAD CHANGE   HEAD CHANGE   HEAD CHANGE   HEAD CHANGE   HEAD CHANGE
  LAYER,ROW,COL LAYER,ROW,COL LAYER,ROW,COL LAYER,ROW,COL LAYER,ROW,COL
 ----------------------------------------------------------------------
     0.5548        0.9292         1.014       -0.8228        -2.458    
  (  3,  1, 10) (  3,  2,  9) (  3,  1,  1) (  3,  2, 10) (  3,  1,  1)
     0.6960        0.3904        0.1329        0.6878E-01   -0.4712E-01
  (  3,  1, 10) (  3,  9,  3) (  2,  1,  7) (  2, 10,  1) (  2, 10, 10)
     0.7488E-01    0.1308E-01   -0.6039E-02   -0.3209E-02   -0.2133E-02
  (  2,  6,  1) (  2,  1,  2) (  3,  7,  2) (  3,  7,  1) (  3,  7,  1)
    -0.1918E-02   -0.1433E-02   -0.1105E-02   -0.6126E-03   -0.3867E-03
  (  2,  6,  1) (  3,  7,  2) (  3,  7,  2) (  3,  7,  1) (  3,  7,  1)
    -0.1629E-03   -0.2690E-03   -0.2119E-03   -0.1125E-03   -0.7667E-04
  (  3,  7,  1) (  3,  7,  2) (  3,  7,  2) (  3,  7,  1) (  3,  7,  2)
    -0.3014E-04   -0.5171E-04   -0.3918E-04   -0.2228E-04   -0.1384E-04
  (  3,  7,  1) (  3,  7,  2) (  3,  7,  2) (  3,  7,  1) (  3,  7,  2)
    -0.5889E-05
  (  3,  7,  1)


 OUTPUT CONTROL FOR STRESS PERIOD   25   TIME STEP   5
    SAVE HEAD FOR ALL LAYERS

 HEAD WILL BE SAVED ON UNIT   21 AT END OF TIME STEP   5, STRESS PERIOD   25
 
 SOLVING FOR HEAD 
    32 ITERATIONS FOR TIME STEP   6 IN STRESS PERIOD   25

 MAXIMUM HEAD CHANGE FOR EACH ITERATION:

    HEAD CHANGE   HEAD CHANGE   HEAD CHANGE   HEAD CHANGE   HEAD CHANGE
  LAYER,ROW,COL LAYER,ROW,COL LAYER,ROW,COL LAYER,ROW,COL LAYER,ROW,COL
 ----------------------------------------------------------------------
    -0.4149        0.5349        0.4411       -0.9306        -1.144    
  (  2,  3,  6) (  3,  1,  9) (  3,  2,  1) (  3,  1, 10) (  3,  1,  1)
     0.5300        0.3253        0.9466E-01    0.3453E-01   -0.3112E-01
  (  3,  1, 10) (  3,  2,  2) (  2,  1,  9) (  2, 10,  1) (  2, 10, 10)
     0.3049E-01   -0.1182E-01   -0.9649E-02   -0.4862E-02   -0.2894E-02
  (  2,  7,  1) (  3,  2,  7) (  3,  3,  5) (  3,  2,  6) (  3,  2,  6)
    -0.2318E-02   -0.1933E-02   -0.1665E-02   -0.8069E-03   -0.5109E-03
  (  2,  7,  1) (  3,  2,  6) (  3,  3,  5) (  3,  3,  6) (  3,  3,  6)
    -0.4030E-03   -0.3384E-03   -0.2793E-03   -0.1441E-03   -0.8528E-04
  (  2,  9,  1) (  3,  2,  7) (  3,  3,  6) (  3,  3,  6) (  3,  3,  6)
    -0.3830E-04   -0.5749E-04   -0.4948E-04   -0.2402E-04   -0.1671E-04
  (  2,  8,  1) (  3,  3,  6) (  3,  3,  6) (  3,  3,  7) (  3,  3,  6)
    -0.1131E-04   -0.3771E-05
  (  2,  9,  1) (  3,  3,  4)


 OUTPUT CONTROL FOR STRESS PERIOD   25   TIME STEP   6
    PRINT BUDGET
    PRINT HEAD FOR ALL LAYERS
    SAVE HEAD FOR ALL LAYERS
    SAVE DRAWDOWN FOR ALL LAYERS
1
              HEAD IN LAYER   1 AT END OF TIME STEP   6 IN STRESS PERIOD   25
  ---------------------------------------------------------------------------

           1       2       3       4       5       6       7       8       9      10
 ...................................................................................
   1    20.14   19.79   19.12   18.69   18.49   18.49   18.69   19.11   19.78   20.13
   2    19.13   18.62   18.19   17.89   17.74   17.74   17.89   18.19   18.61   19.12
   3    17.69   17.19   16.82   16.57   16.44   16.44   16.56   16.81   17.18   17.68
   4    15.73   15.30   14.99   14.80   14.71   14.70   14.80   14.99   15.29   15.72
   5    12.96   12.87   12.77   12.68   12.64   12.64   12.68   12.76   12.86   12.95
   6    10.53   10.51   10.47   10.43   10.41   10.41   10.43   10.46   10.50   10.53
   7     8.21    8.19    8.16    8.13    8.10    8.10    8.12    8.16    8.19    8.21
   8     5.98    5.93    5.85    5.76    5.71    5.71    5.76    5.84    5.92    5.97
   9     3.93    3.79    3.53    3.24    3.12    3.12    3.24    3.53    3.79    3.93
  10     2.47    2.11    1.33    0.00    0.00    0.00    0.00    1.33    2.11    2.47
1
              HEAD IN LAYER   2 AT END OF TIME STEP   6 IN STRESS PERIOD   25
  ---------------------------------------------------------------------------

           1       2       3       4       5       6       7       8       9      10
 ...................................................................................
   1    -4.08   -4.08   -4.08   -4.09   -4.10   -4.12   -4.14   -4.16   -4.18   -4.21
   2    -4.16   -3.28   -3.58   -4.07   -4.57   -4.93   -4.91   -4.58   -4.22   -4.36
   3    -4.28   -3.80   -4.30   -5.11   -6.23   -7.19   -7.06   -6.10   -5.17   -4.51
   4    -4.42   -4.08   -4.48   -5.08   -5.84   -6.68   -6.54   -5.83   -5.20   -4.67
   5    -4.58   -4.29   -4.46   -4.73   -5.02   -5.25   -5.27   -5.14   -4.97   -4.81
   6    -4.76   -4.46   -4.52   -4.63   -4.75   -4.84   -4.88   -4.87   -4.85   -4.96
   7    -4.94   -4.75   -4.77   -4.83   -4.89   -4.93   -4.95   -4.95   -4.97   -5.11
   8    -5.14   -5.19   -5.25   -5.31   -5.36   -5.38   -5.38   -5.35   -5.31   -5.26
   9    -5.33   -5.74   -5.93   -6.07   -6.15   -6.16   -6.11   -5.98   -5.82   -5.42
  10    -5.51   -5.55   -5.59   -5.62   -5.63   -5.64   -5.63   -5.61   -5.59   -5.56
1
              HEAD IN LAYER   3 AT END OF TIME STEP   6 IN STRESS PERIOD   25
  ---------------------------------------------------------------------------

           1       2       3       4       5       6       7       8       9      10
 ...................................................................................
   1   -24.52  -24.69  -25.01  -25.42  -25.86  -26.22  -26.38  -26.38  -26.31  -26.25
   2   -24.54  -24.80  -25.31  -26.05  -26.92  -27.70  -27.78  -27.38  -26.98  -26.74
   3   -24.22  -24.61  -25.44  -26.84  -29.08  -32.70  -31.85  -29.14  -27.68  -27.02
   4   -23.02  -23.33  -23.98  -25.01  -26.44  -28.32  -28.05  -26.71  -25.83  -25.40
   5   -21.20  -21.38  -21.72  -22.19  -22.72  -23.18  -23.27  -23.09  -22.87  -22.74
   6   -19.30  -19.38  -19.54  -19.74  -19.96  -20.13  -20.22  -20.23  -20.21  -20.19
   7   -17.63  -17.66  -17.74  -17.83  -17.93  -18.01  -18.07  -18.10  -18.12  -18.12
   8   -16.33  -16.35  -16.39  -16.43  -16.48  -16.52  -16.56  -16.59  -16.60  -16.61
   9   -15.46  -15.47  -15.49  -15.52  -15.55  -15.57  -15.59  -15.61  -15.62  -15.63
  10   -15.03  -15.03  -15.05  -15.06  -15.08  -15.10  -15.12  -15.13  -15.14  -15.14

 HEAD WILL BE SAVED ON UNIT   21 AT END OF TIME STEP   6, STRESS PERIOD   25

 DRAWDOWN WILL BE SAVED ON UNIT   22 AT END OF TIME STEP   6, STRESS PERIOD   25
1
  VOLUMETRIC BUDGET FOR ENTIRE MODEL AT END OF TIME STEP  6 IN STRESS PERIOD  25
  ------------------------------------------------------------------------------

     CUMULATIVE VOLUMES      L**3       RATES FOR THIS TIME STEP      L**3/T
     ------------------                 ------------------------

           IN:                                      IN:
           ---                                      ---
             STORAGE =    38147032.0000               STORAGE =        3307.0264
       CONSTANT HEAD =      536634.4375         CONSTANT HEAD =         135.1015
               WELLS =   263045952.0000                 WELLS =       30000.0000
    INST. IB STORAGE =    54452464.0000      INST. IB STORAGE =        5045.2529
    DELAY IB STORAGE =   137008800.0000      DELAY IB STORAGE =       15176.9336

            TOTAL IN =   493190880.0000              TOTAL IN =       53664.3125

          OUT:                                     OUT:
          ----                                     ----
             STORAGE =           0.0000               STORAGE =           0.0000
       CONSTANT HEAD =   230175152.0000         CONSTANT HEAD =       23664.3652
               WELLS =   263015952.0000                 WELLS =       30000.0000
    INST. IB STORAGE =           0.0000      INST. IB STORAGE =           0.0000
    DELAY IB STORAGE =           0.0000      DELAY IB STORAGE =           0.0000

           TOTAL OUT =   493191104.0000             TOTAL OUT =       53664.3672

            IN - OUT =        -224.0000              IN - OUT =      -5.4688E-02

 PERCENT DISCREPANCY =           0.00     PERCENT DISCREPANCY =           0.00






          TIME SUMMARY AT END OF TIME STEP   6 IN STRESS PERIOD   25
                    SECONDS     MINUTES      HOURS       DAYS        YEARS
                    -----------------------------------------------------------
   TIME STEP LENGTH 9.18681E+06 1.53113E+05  2551.9      106.33     0.29111    
 STRESS PERIOD TIME 3.15619E+07 5.26032E+05  8767.2      365.30      1.0001    
         TOTAL TIME 7.57572E+08 1.26262E+07 2.10437E+05  8768.2      24.006    
1

                               VOLUMETRIC BUDGET FOR SYSTEMS OF DELAY INTERBEDS
                                          AT END OF TIME STEP  6 IN STRESS PERIOD 25

          |   C U M U L A T I V E   V O L U M E S   L**3           | R A T E S   F O R  T H I S  T I M E  S T E P   L**3/T  |
   SYSTEM |    CHANGE IN     BOUNDARY                    PERCENT   |    CHANGE IN     BOUNDARY                    PERCENT   |
   NUMBER |     STORAGE        FLOW           SUM      DISCREPANCY |     STORAGE        FLOW           SUM      DISCREPANCY |
  --------|--------------------------------------------------------|--------------------------------------------------------|
      1     97258.        -97258.         0.0000         0.0000         8.7921        -8.7921       -0.28610E-05   -0.32541E-04
      2    0.13691E+09   -0.13691E+09     0.0000         0.0000         15168.        -15168.         0.0000         0.0000    
  --------|--------------------------------------------------------|--------------------------------------------------------|
 TOTALS:    0.13701E+09   -0.13701E+09     0.0000         0.0000         15177.        -15177.         0.0000         0.0000    
1
                            STRESS PERIOD NO.   26, LENGTH =   365.3000    
                            -----------------------------------------------

                              NUMBER OF TIME STEPS =     6

                               MULTIPLIER FOR DELT =     1.300

                            INITIAL TIME STEP SIZE =   28.63744    

 REUSING NON-PARAMETER WELLS FROM LAST STRESS PERIOD

     14 WELLS
 
 SOLVING FOR HEAD 

    43 ITERATIONS FOR TIME STEP   1 IN STRESS PERIOD   26

 MAXIMUM HEAD CHANGE FOR EACH ITERATION:

    HEAD CHANGE   HEAD CHANGE   HEAD CHANGE   HEAD CHANGE   HEAD CHANGE
  LAYER,ROW,COL LAYER,ROW,COL LAYER,ROW,COL LAYER,ROW,COL LAYER,ROW,COL
 ----------------------------------------------------------------------
      1.350         3.285         2.525        -1.245        -2.597    
  (  3,  1,  7) (  3,  1, 10) (  3,  1,  1) (  3,  2, 10) (  3,  1,  1)
    -0.2176       -0.5942        -1.322        -1.066        0.8426    
  (  3,  1, 10) (  3,  1,  1) (  3,  1, 10) (  3,  4,  1) (  3, 10,  1)
    -0.5546E-01   -0.8978E-02   -0.4248E-02   -0.3162E-02   -0.1370E-02
  (  2,  7,  1) (  2,  1,  2) (  3,  2,  7) (  3,  3,  5) (  3,  2,  2)
    -0.1389E-02    0.8541E-03   -0.6750E-03    0.1387E-02    0.5708E-03
  (  3,  3,  6) (  3, 10,  1) (  3,  3,  5) (  3,  7, 10) (  3,  1,  5)
     0.1510E-02    0.1145E-02    0.1623E-02    0.1670E-02    0.1382E-02
  (  3, 10, 10) (  3,  2,  7) (  3, 10, 10) (  3,  1,  1) (  3,  1,  5)
     0.9337E-03    0.8888E-03    0.6432E-03    0.4561E-03    0.3436E-03
  (  3,  1,  5) (  3,  2,  7) (  3,  1,  5) (  3,  1,  5) (  3,  1,  5)
     0.2263E-03    0.2197E-03    0.1555E-03    0.1121E-03    0.8336E-04
  (  3,  1,  5) (  3,  1,  5) (  3,  1,  5) (  3,  1,  5) (  3,  1,  5)
     0.5783E-04    0.5307E-04    0.3841E-04    0.2737E-04    0.2133E-04
  (  3,  1,  5) (  3,  2,  7) (  3,  1,  5) (  3,  1,  5) (  3,  1,  5)
     0.1372E-04    0.1163E-04    0.8226E-05
  (  3,  1,  5) (  3,  1,  5) (  3,  1,  5)


 OUTPUT CONTROL FOR STRESS PERIOD   26   TIME STEP   1
    SAVE HEAD FOR ALL LAYERS

 HEAD WILL BE SAVED ON UNIT   21 AT END OF TIME STEP   1, STRESS PERIOD   26
 
 SOLVING FOR HEAD 
    41 ITERATIONS FOR TIME STEP   2 IN STRESS PERIOD   26

 MAXIMUM HEAD CHANGE FOR EACH ITERATION:

    HEAD CHANGE   HEAD CHANGE   HEAD CHANGE   HEAD CHANGE   HEAD CHANGE
  LAYER,ROW,COL LAYER,ROW,COL LAYER,ROW,COL LAYER,ROW,COL LAYER,ROW,COL
 ----------------------------------------------------------------------
      1.061         2.444         2.412       -0.9710        -2.748    
  (  3,  1, 10) (  3,  1,  6) (  3,  1,  1) (  3, 10, 10) (  3,  1,  1)
    -0.1889       -0.4936        -1.210        0.1968       -0.3709E-01
  (  3,  1, 10) (  3,  1,  1) (  3,  1, 10) (  2,  3,  7) (  2,  1,  1)
    -0.5412E-01   -0.1030E-01   -0.2520E-02   -0.1543E-02   -0.1445E-02
  (  2,  7,  1) (  2,  1,  2) (  3,  3,  4) (  3,  1,  9) (  3,  1, 10)
     0.1127E-02    0.7339E-03    0.2066E-02    0.9249E-03    0.2413E-02
  (  3,  8,  8) (  3, 10,  1) (  3,  5,  3) (  3,  3,  7) (  3,  1,  4)
     0.1073E-02    0.2414E-02    0.2089E-02    0.1448E-02    0.1061E-02
  (  3,  1,  1) (  3,  7,  7) (  3,  1,  1) (  3,  2,  7) (  3,  2,  7)
     0.6561E-03    0.7217E-03    0.4994E-03    0.3363E-03    0.2457E-03
  (  3,  1, 10) (  3,  2,  7) (  3,  2,  7) (  3,  2,  7) (  3,  1,  1)
     0.1573E-03    0.1693E-03    0.1156E-03    0.7847E-04    0.5741E-04
  (  3,  1,  1) (  3,  2,  7) (  3,  2,  7) (  3,  2,  7) (  3,  2,  7)
     0.3569E-04    0.3867E-04    0.2715E-04    0.1823E-04    0.1334E-04
  (  3, 10,  1) (  3,  2,  7) (  3,  2,  7) (  3,  2,  7) (  3,  2,  7)
     0.8385E-05
  (  3,  1,  1)


 OUTPUT CONTROL FOR STRESS PERIOD   26   TIME STEP   2
    SAVE HEAD FOR ALL LAYERS

 HEAD WILL BE SAVED ON UNIT   21 AT END OF TIME STEP   2, STRESS PERIOD   26
 
 SOLVING FOR HEAD 
    39 ITERATIONS FOR TIME STEP   3 IN STRESS PERIOD   26

 MAXIMUM HEAD CHANGE FOR EACH ITERATION:

    HEAD CHANGE   HEAD CHANGE   HEAD CHANGE   HEAD CHANGE   HEAD CHANGE
  LAYER,ROW,COL LAYER,ROW,COL LAYER,ROW,COL LAYER,ROW,COL LAYER,ROW,COL
 ----------------------------------------------------------------------
     0.9257         1.984         1.844       -0.7292        -2.774    
  (  3,  1,  1) (  3,  1,  8) (  3,  3,  5) (  3, 10, 10) (  3,  1,  1)
     0.2002       -0.3347       -0.9263        0.4640        0.3096E-01
  (  2,  3,  6) (  3,  1,  1) (  3,  1, 10) (  3, 10,  1) (  2, 10,  9)
    -0.4206E-01   -0.1295E-01   -0.4157E-02   -0.2114E-02   -0.1282E-02
  (  2,  7,  1) (  2,  1,  2) (  3,  2,  6) (  3,  4,  6) (  3,  1,  3)
     0.1272E-02    0.1720E-02    0.1677E-02    0.2522E-02    0.2741E-02
  (  3,  1,  1) (  3, 10, 10) (  3,  1,  5) (  3, 10, 10) (  3,  1,  4)
     0.1571E-02    0.1887E-02    0.1275E-02    0.8269E-03    0.5819E-03
  (  3,  1,  1) (  3,  2,  2) (  3,  2,  1) (  3,  1,  5) (  3,  1,  5)
     0.3597E-03    0.4014E-03    0.2778E-03    0.1755E-03    0.1288E-03
  (  3,  1, 10) (  3,  2,  2) (  3,  1,  5) (  3,  1,  5) (  3,  1,  4)
     0.7236E-04    0.8669E-04    0.5809E-04    0.3972E-04    0.2867E-04
  (  3,  1,  1) (  3,  2,  2) (  3,  2,  1) (  3,  1,  5) (  3,  1, 10)
     0.1639E-04    0.1823E-04    0.1291E-04    0.8412E-05
  (  3,  1,  5) (  3,  2,  2) (  3,  2,  2) (  3,  1, 10)


 OUTPUT CONTROL FOR STRESS PERIOD   26   TIME STEP   3
    SAVE HEAD FOR ALL LAYERS

 HEAD WILL BE SAVED ON UNIT   21 AT END OF TIME STEP   3, STRESS PERIOD   26
 
 SOLVING FOR HEAD 
    36 ITERATIONS FOR TIME STEP   4 IN STRESS PERIOD   26

 MAXIMUM HEAD CHANGE FOR EACH ITERATION:

    HEAD CHANGE   HEAD CHANGE   HEAD CHANGE   HEAD CHANGE   HEAD CHANGE
  LAYER,ROW,COL LAYER,ROW,COL LAYER,ROW,COL LAYER,ROW,COL LAYER,ROW,COL
 ----------------------------------------------------------------------
     0.6553         1.495         1.469       -0.7154        -2.682    
  (  3,  1,  1) (  3,  1, 10) (  3,  2,  4) (  3, 10, 10) (  3,  1,  1)
     0.5774        0.5584E-01   -0.1973E-01   -0.1347E-01   -0.9858E-02
  (  2,  3,  6) (  2, 10,  2) (  3,  1, 10) (  3,  1,  6) (  3,  3,  7)
    -0.3954E-02   -0.5722E-02   -0.2747E-02   -0.1556E-02    0.2203E-02
  (  3,  1,  1) (  3,  2,  7) (  3,  7,  3) (  3,  2,  8) (  3,  1,  1)
     0.1425E-02    0.3084E-02    0.2482E-02    0.1700E-02    0.1166E-02
  (  3, 10,  1) (  3,  1,  1) (  3,  1, 10) (  3,  1,  1) (  3,  1,  1)
     0.6781E-03    0.7677E-03    0.5844E-03    0.3330E-03    0.2451E-03
  (  3,  1,  1) (  3,  2,  2) (  3,  1,  1) (  3,  1,  1) (  3,  1,  1)
     0.1360E-03    0.1661E-03    0.1073E-03    0.7330E-04    0.4945E-04
  (  3,  1,  1) (  3,  1,  1) (  3,  1,  9) (  3,  1,  1) (  3,  1,  1)
     0.3154E-04    0.3072E-04    0.2527E-04    0.1374E-04    0.1088E-04
  (  3,  1,  1) (  3,  1, 10) (  3,  1,  1) (  3,  1,  1) (  3,  1,  1)
     0.5176E-05
  (  2,  7,  1)


 OUTPUT CONTROL FOR STRESS PERIOD   26   TIME STEP   4
    SAVE HEAD FOR ALL LAYERS

 HEAD WILL BE SAVED ON UNIT   21 AT END OF TIME STEP   4, STRESS PERIOD   26
 
 SOLVING FOR HEAD 
    31 ITERATIONS FOR TIME STEP   5 IN STRESS PERIOD   26

 MAXIMUM HEAD CHANGE FOR EACH ITERATION:

    HEAD CHANGE   HEAD CHANGE   HEAD CHANGE   HEAD CHANGE   HEAD CHANGE
  LAYER,ROW,COL LAYER,ROW,COL LAYER,ROW,COL LAYER,ROW,COL LAYER,ROW,COL
 ----------------------------------------------------------------------
     0.6201        0.8696         1.040       -0.8464        -2.466    
  (  3,  1, 10) (  3,  2,  3) (  3,  1,  1) (  3, 10, 10) (  3,  1,  1)
     0.6985        0.4016        0.1340        0.6956E-01   -0.4720E-01
  (  3,  1, 10) (  3,  9,  3) (  2,  1,  7) (  2, 10,  1) (  2, 10, 10)
     0.7576E-01    0.1371E-01   -0.6002E-02   -0.3159E-02   -0.2085E-02
  (  2,  6,  1) (  2,  1,  2) (  3,  7,  3) (  3,  7,  2) (  3,  8,  3)
    -0.2047E-02   -0.1404E-02   -0.1098E-02   -0.5934E-03   -0.3811E-03
  (  2,  6,  1) (  3,  8,  3) (  3,  7,  3) (  3,  8,  3) (  3,  7,  3)
    -0.1789E-03   -0.2639E-03   -0.2076E-03   -0.1107E-03   -0.7443E-04
  (  3, 10, 10) (  3,  8,  3) (  3,  8,  4) (  3,  7,  3) (  3,  8,  3)
    -0.2811E-04   -0.4999E-04   -0.3841E-04   -0.2132E-04   -0.1361E-04
  (  3,  7,  4) (  3,  8,  3) (  3,  7,  3) (  3,  8,  4) (  3,  8,  3)
    -0.5719E-05
  (  3,  7,  1)


 OUTPUT CONTROL FOR STRESS PERIOD   26   TIME STEP   5
    SAVE HEAD FOR ALL LAYERS

 HEAD WILL BE SAVED ON UNIT   21 AT END OF TIME STEP   5, STRESS PERIOD   26
 
 SOLVING FOR HEAD 
    32 ITERATIONS FOR TIME STEP   6 IN STRESS PERIOD   26

 MAXIMUM HEAD CHANGE FOR EACH ITERATION:

    HEAD CHANGE   HEAD CHANGE   HEAD CHANGE   HEAD CHANGE   HEAD CHANGE
  LAYER,ROW,COL LAYER,ROW,COL LAYER,ROW,COL LAYER,ROW,COL LAYER,ROW,COL
 ----------------------------------------------------------------------
    -0.3522        0.5014        0.4396       -0.9299        -1.138    
  (  2,  3,  7) (  3,  2,  8) (  3,  3,  4) (  3,  2, 10) (  3,  1,  1)
     0.5330        0.3273        0.9515E-01    0.3484E-01   -0.3174E-01
  (  3,  1, 10) (  3,  2,  2) (  2,  1,  9) (  2, 10,  1) (  2, 10, 10)
     0.3136E-01   -0.1192E-01   -0.9797E-02   -0.4900E-02   -0.2927E-02
  (  2,  7,  1) (  3,  2,  6) (  3,  3,  4) (  3,  2,  6) (  3,  3,  6)
    -0.2336E-02   -0.1953E-02   -0.1686E-02   -0.8195E-03   -0.5146E-03
  (  2,  7,  1) (  3,  2,  3) (  3,  3,  5) (  3,  3,  6) (  3,  3,  6)
    -0.4108E-03   -0.3394E-03   -0.2844E-03   -0.1454E-03   -0.8689E-04
  (  2,  9,  1) (  3,  2,  6) (  3,  3,  5) (  3,  3,  6) (  3,  3,  6)
    -0.3847E-04   -0.5819E-04   -0.5049E-04   -0.2416E-04   -0.1630E-04
  (  2,  8,  1) (  3,  3,  6) (  3,  3,  6) (  3,  3,  6) (  3,  3,  6)
    -0.1152E-04   -0.4046E-05
  (  2,  9,  1) (  3,  3,  5)


 OUTPUT CONTROL FOR STRESS PERIOD   26   TIME STEP   6
    PRINT BUDGET
    PRINT HEAD FOR ALL LAYERS
    SAVE HEAD FOR ALL LAYERS
    SAVE DRAWDOWN FOR ALL LAYERS
1
              HEAD IN LAYER   1 AT END OF TIME STEP   6 IN STRESS PERIOD   26
  ---------------------------------------------------------------------------

           1       2       3       4       5       6       7       8       9      10
 ...................................................................................
   1    20.06   19.70   19.03   18.61   18.40   18.40   18.61   19.03   19.70   20.05
   2    19.05   18.54   18.11   17.81   17.65   17.65   17.80   18.10   18.53   19.04
   3    17.61   17.11   16.74   16.49   16.36   16.36   16.48   16.73   17.10   17.60
   4    15.66   15.22   14.92   14.73   14.63   14.63   14.72   14.91   15.21   15.65
   5    12.89   12.80   12.70   12.61   12.57   12.57   12.61   12.69   12.79   12.88
   6    10.47   10.44   10.40   10.37   10.35   10.35   10.37   10.40   10.44   10.46
   7     8.16    8.14    8.11    8.07    8.05    8.05    8.07    8.10    8.14    8.16
   8     5.94    5.89    5.81    5.72    5.68    5.67    5.72    5.80    5.88    5.93
   9     3.90    3.76    3.51    3.22    3.10    3.10    3.22    3.50    3.76    3.90
  10     2.45    2.10    1.32    0.00    0.00    0.00    0.00    1.32    2.09    2.45
1
              HEAD IN LAYER   2 AT END OF TIME STEP   6 IN STRESS PERIOD   26
  ---------------------------------------------------------------------------

           1       2       3       4       5       6       7       8       9      10
 ...................................................................................
   1    -4.38   -4.37   -4.37   -4.38   -4.40   -4.41   -4.43   -4.45   -4.48   -4.50
   2    -4.45   -3.58   -3.89   -4.38   -4.88   -5.24   -5.21   -4.89   -4.53   -4.65
   3    -4.56   -4.10   -4.60   -5.42   -6.53   -7.32   -7.15   -6.40   -5.47   -4.80
   4    -4.70   -4.37   -4.78   -5.38   -6.13   -6.97   -6.83   -6.13   -5.50   -4.95
   5    -4.86   -4.57   -4.75   -5.02   -5.31   -5.54   -5.56   -5.43   -5.26   -5.09
   6    -5.03   -4.74   -4.79   -4.91   -5.03   -5.12   -5.15   -5.14   -5.13   -5.23
   7    -5.21   -5.01   -5.03   -5.10   -5.15   -5.20   -5.22   -5.22   -5.23   -5.38
   8    -5.40   -5.44   -5.50   -5.57   -5.61   -5.64   -5.63   -5.60   -5.57   -5.53
   9    -5.59   -5.99   -6.17   -6.31   -6.39   -6.40   -6.35   -6.23   -6.07   -5.68
  10    -5.77   -5.81   -5.85   -5.87   -5.89   -5.89   -5.89   -5.87   -5.85   -5.82
1
              HEAD IN LAYER   3 AT END OF TIME STEP   6 IN STRESS PERIOD   26
  ---------------------------------------------------------------------------

           1       2       3       4       5       6       7       8       9      10
 ...................................................................................
   1   -25.06  -25.23  -25.55  -25.97  -26.41  -26.76  -26.93  -26.93  -26.85  -26.80
   2   -25.08  -25.34  -25.85  -26.59  -27.46  -28.24  -28.33  -27.92  -27.52  -27.28
   3   -24.75  -25.14  -25.97  -27.38  -29.61  -33.23  -32.38  -29.68  -28.21  -27.55
   4   -23.54  -23.85  -24.51  -25.53  -26.96  -28.84  -28.57  -27.23  -26.35  -25.92
   5   -21.71  -21.88  -22.22  -22.69  -23.23  -23.69  -23.78  -23.60  -23.38  -23.25
   6   -19.79  -19.87  -20.03  -20.23  -20.45  -20.62  -20.71  -20.73  -20.70  -20.68
   7   -18.10  -18.14  -18.21  -18.31  -18.40  -18.49  -18.55  -18.58  -18.59  -18.60
   8   -16.80  -16.82  -16.85  -16.90  -16.94  -16.99  -17.03  -17.05  -17.07  -17.07
   9   -15.92  -15.93  -15.95  -15.97  -16.00  -16.03  -16.05  -16.07  -16.08  -16.08
  10   -15.48  -15.49  -15.50  -15.52  -15.53  -15.55  -15.57  -15.58  -15.59  -15.60

 HEAD WILL BE SAVED ON UNIT   21 AT END OF TIME STEP   6, STRESS PERIOD   26

 DRAWDOWN WILL BE SAVED ON UNIT   22 AT END OF TIME STEP   6, STRESS PERIOD   26
1
  VOLUMETRIC BUDGET FOR ENTIRE MODEL AT END OF TIME STEP  6 IN STRESS PERIOD  26
  ------------------------------------------------------------------------------

     CUMULATIVE VOLUMES      L**3       RATES FOR THIS TIME STEP      L**3/T
     ------------------                 ------------------------

           IN:                                      IN:
           ---                                      ---
             STORAGE =    39342228.0000               STORAGE =        3248.4946
       CONSTANT HEAD =      587340.3750         CONSTANT HEAD =         141.2822
               WELLS =   274004928.0000                 WELLS =       30000.0000
    INST. IB STORAGE =    56289632.0000      INST. IB STORAGE =        5016.7314
    DELAY IB STORAGE =   142530432.0000      DELAY IB STORAGE =       15076.0254

            TOTAL IN =   512754560.0000              TOTAL IN =       53482.5352

          OUT:                                     OUT:
          ----                                     ----
             STORAGE =           0.0000               STORAGE =           0.0000
       CONSTANT HEAD =   238779888.0000         CONSTANT HEAD =       23482.5957
               WELLS =   273974944.0000                 WELLS =       30000.0000
    INST. IB STORAGE =           0.0000      INST. IB STORAGE =           0.0000
    DELAY IB STORAGE =           0.0000      DELAY IB STORAGE =           0.0000

           TOTAL OUT =   512754816.0000             TOTAL OUT =       53482.5938

            IN - OUT =        -256.0000              IN - OUT =      -5.8594E-02

 PERCENT DISCREPANCY =           0.00     PERCENT DISCREPANCY =           0.00






          TIME SUMMARY AT END OF TIME STEP   6 IN STRESS PERIOD   26
                    SECONDS     MINUTES      HOURS       DAYS        YEARS
                    -----------------------------------------------------------
   TIME STEP LENGTH 9.18681E+06 1.53113E+05  2551.9      106.33     0.29111    
 STRESS PERIOD TIME 3.15619E+07 5.26032E+05  8767.2      365.30      1.0001    
         TOTAL TIME 7.89134E+08 1.31522E+07 2.19204E+05  9133.5      25.006    
1

                               VOLUMETRIC BUDGET FOR SYSTEMS OF DELAY INTERBEDS
                                          AT END OF TIME STEP  6 IN STRESS PERIOD 26

          |   C U M U L A T I V E   V O L U M E S   L**3           | R A T E S   F O R  T H I S  T I M E  S T E P   L**3/T  |
   SYSTEM |    CHANGE IN     BOUNDARY                    PERCENT   |    CHANGE IN     BOUNDARY                    PERCENT   |
   NUMBER |     STORAGE        FLOW           SUM      DISCREPANCY |     STORAGE        FLOW           SUM      DISCREPANCY |
  --------|--------------------------------------------------------|--------------------------------------------------------|
      1    0.10041E+06   -0.10041E+06     0.0000         0.0000         8.6302        -8.6302        0.95367E-06    0.11050E-04
      2    0.14243E+09   -0.14243E+09     0.0000         0.0000         15067.        -15067.       -0.19531E-02   -0.12963E-04
  --------|--------------------------------------------------------|--------------------------------------------------------|
 TOTALS:    0.14253E+09   -0.14253E+09     0.0000         0.0000         15076.        -15076.       -0.19531E-02   -0.12955E-04
1
                            STRESS PERIOD NO.   27, LENGTH =   365.3000    
                            -----------------------------------------------

                              NUMBER OF TIME STEPS =     6

                               MULTIPLIER FOR DELT =     1.300

                            INITIAL TIME STEP SIZE =   28.63744    

 REUSING NON-PARAMETER WELLS FROM LAST STRESS PERIOD

     14 WELLS
 
 SOLVING FOR HEAD 

    43 ITERATIONS FOR TIME STEP   1 IN STRESS PERIOD   27

 MAXIMUM HEAD CHANGE FOR EACH ITERATION:

    HEAD CHANGE   HEAD CHANGE   HEAD CHANGE   HEAD CHANGE   HEAD CHANGE
  LAYER,ROW,COL LAYER,ROW,COL LAYER,ROW,COL LAYER,ROW,COL LAYER,ROW,COL
 ----------------------------------------------------------------------
      1.184         3.261         2.434        -1.256        -2.507    
  (  3,  1,  4) (  3,  1, 10) (  3,  1,  1) (  3,  1,  4) (  3,  1,  1)
    -0.2146       -0.5806        -1.302        -1.038        0.8036    
  (  3,  1, 10) (  3,  1,  1) (  3,  1, 10) (  3,  4,  1) (  3, 10,  1)
     0.1419       -0.8773E-02   -0.4260E-02   -0.2988E-02   -0.1290E-02
  (  2,  4,  7) (  2,  1,  2) (  3,  2,  5) (  3,  1, 10) (  3,  2,  1)
    -0.1436E-02    0.6905E-03   -0.6621E-03    0.1341E-02    0.7043E-03
  (  3, 10,  1) (  3, 10,  1) (  3, 10, 10) (  3,  7,  4) (  3,  2,  7)
     0.1326E-02    0.1222E-02    0.1390E-02    0.1627E-02    0.1394E-02
  (  3, 10, 10) (  3,  8,  6) (  3, 10,  1) (  3,  1,  4) (  3,  2,  7)
     0.8740E-03    0.9370E-03    0.6552E-03    0.4606E-03    0.3436E-03
  (  3,  2,  7) (  3,  2,  7) (  3,  2,  7) (  3,  2,  7) (  3,  2,  7)
     0.2124E-03    0.2306E-03    0.1597E-03    0.1139E-03    0.8380E-04
  (  3,  2,  7) (  3,  2,  7) (  3,  2,  7) (  3,  2,  7) (  3,  2,  7)
     0.5329E-04    0.5593E-04    0.3985E-04    0.2713E-04    0.2116E-04
  (  3,  2,  7) (  3,  2,  7) (  3,  2,  7) (  3,  2,  7) (  3,  2,  7)
     0.1286E-04    0.1250E-04    0.7854E-05
  (  3,  2,  6) (  3,  2,  8) (  3,  2,  8)


 OUTPUT CONTROL FOR STRESS PERIOD   27   TIME STEP   1
    SAVE HEAD FOR ALL LAYERS

 HEAD WILL BE SAVED ON UNIT   21 AT END OF TIME STEP   1, STRESS PERIOD   27
 
 SOLVING FOR HEAD 
    41 ITERATIONS FOR TIME STEP   2 IN STRESS PERIOD   27

 MAXIMUM HEAD CHANGE FOR EACH ITERATION:

    HEAD CHANGE   HEAD CHANGE   HEAD CHANGE   HEAD CHANGE   HEAD CHANGE
  LAYER,ROW,COL LAYER,ROW,COL LAYER,ROW,COL LAYER,ROW,COL LAYER,ROW,COL
 ----------------------------------------------------------------------
      1.202         2.891         2.355        -1.039        -2.814    
  (  3,  1,  5) (  3,  1, 10) (  3,  3,  3) (  3, 10, 10) (  3,  1,  1)
     0.1901       -0.4463        -1.130        0.2060       -0.3779E-01
  (  2,  3,  6) (  3,  1,  1) (  3,  1, 10) (  3, 10,  1) (  2,  1,  1)
    -0.5037E-01   -0.1206E-01   -0.1914E-02   -0.1128E-02   -0.1428E-02
  (  2,  7,  1) (  2,  1,  2) (  3,  5,  5) (  3,  2,  1) (  3,  4,  6)
     0.1213E-02    0.1058E-02    0.2021E-02    0.9536E-03    0.2351E-02
  (  3, 10,  1) (  3, 10, 10) (  3,  2,  4) (  3,  1,  9) (  3,  1,  3)
     0.1137E-02    0.2461E-02    0.2034E-02    0.1444E-02    0.1078E-02
  (  3, 10, 10) (  3,  7,  8) (  3, 10, 10) (  3,  1,  9) (  3, 10, 10)
     0.6838E-03    0.6972E-03    0.4865E-03    0.3418E-03    0.2472E-03
  (  3,  1, 10) (  3,  2,  1) (  3,  1,  9) (  3, 10, 10) (  3,  1,  9)
     0.1690E-03    0.1625E-03    0.1149E-03    0.7885E-04    0.5970E-04
  (  3, 10, 10) (  3,  2,  1) (  3, 10,  9) (  3,  1,  9) (  3, 10,  9)
     0.3836E-04    0.3771E-04    0.2633E-04    0.1943E-04    0.1396E-04
  (  3,  1,  9) (  3, 10, 10) (  3,  1,  9) (  3, 10, 10) (  3,  2,  1)
     0.8482E-05
  (  3,  1,  9)


 OUTPUT CONTROL FOR STRESS PERIOD   27   TIME STEP   2
    SAVE HEAD FOR ALL LAYERS

 HEAD WILL BE SAVED ON UNIT   21 AT END OF TIME STEP   2, STRESS PERIOD   27
 
 SOLVING FOR HEAD 
    39 ITERATIONS FOR TIME STEP   3 IN STRESS PERIOD   27

 MAXIMUM HEAD CHANGE FOR EACH ITERATION:

    HEAD CHANGE   HEAD CHANGE   HEAD CHANGE   HEAD CHANGE   HEAD CHANGE
  LAYER,ROW,COL LAYER,ROW,COL LAYER,ROW,COL LAYER,ROW,COL LAYER,ROW,COL
 ----------------------------------------------------------------------
     0.8321         1.893         1.888       -0.7793        -2.723    
  (  3,  1,  6) (  3,  1,  9) (  3,  3,  3) (  3, 10, 10) (  3,  1,  1)
     0.3744       -0.3468       -0.9341        0.4560        0.3135E-01
  (  2,  3,  6) (  3,  1,  1) (  3,  1, 10) (  3, 10,  1) (  2, 10,  9)
    -0.4261E-01   -0.1246E-01   -0.4093E-02   -0.1885E-02   -0.1316E-02
  (  2,  7,  1) (  2,  1,  2) (  3,  2,  5) (  3,  5,  9) (  3,  2,  7)
     0.1321E-02    0.1607E-02    0.1658E-02    0.2433E-02    0.2724E-02
  (  3,  1,  1) (  3, 10,  2) (  3,  1,  8) (  3, 10,  1) (  3,  1,  3)
     0.1621E-02    0.1883E-02    0.1292E-02    0.8257E-03    0.5861E-03
  (  3,  1,  1) (  3,  2,  2) (  3,  1,  1) (  3,  1,  8) (  3,  1,  4)
     0.3569E-03    0.4012E-03    0.2766E-03    0.1766E-03    0.1284E-03
  (  3,  1, 10) (  3,  1,  1) (  3,  1,  8) (  3,  1,  4) (  3,  1,  3)
     0.7567E-04    0.8624E-04    0.6025E-04    0.3880E-04    0.2780E-04
  (  3,  1,  1) (  3,  2,  6) (  3,  1,  1) (  3,  1,  3) (  3,  1,  9)
     0.1676E-04    0.1835E-04    0.1330E-04    0.9094E-05
  (  3,  1,  3) (  3,  3,  7) (  3,  3,  6) (  3,  1,  1)


 OUTPUT CONTROL FOR STRESS PERIOD   27   TIME STEP   3
    SAVE HEAD FOR ALL LAYERS

 HEAD WILL BE SAVED ON UNIT   21 AT END OF TIME STEP   3, STRESS PERIOD   27
 
 SOLVING FOR HEAD 
    35 ITERATIONS FOR TIME STEP   4 IN STRESS PERIOD   27

 MAXIMUM HEAD CHANGE FOR EACH ITERATION:

    HEAD CHANGE   HEAD CHANGE   HEAD CHANGE   HEAD CHANGE   HEAD CHANGE
  LAYER,ROW,COL LAYER,ROW,COL LAYER,ROW,COL LAYER,ROW,COL LAYER,ROW,COL
 ----------------------------------------------------------------------
     0.8012         1.285         1.589       -0.6991        -2.706    
  (  3,  1, 10) (  3,  1,  8) (  3,  1,  1) (  3, 10, 10) (  3,  1,  1)
     0.6221        0.5865E-01   -0.1670E-01   -0.1324E-01   -0.9852E-02
  (  2,  3,  6) (  2, 10,  2) (  3,  1,  1) (  3,  2,  9) (  3,  3,  4)
    -0.4146E-02   -0.5857E-02   -0.3058E-02   -0.1559E-02    0.1873E-02
  (  3,  1, 10) (  3,  2,  7) (  3,  6,  3) (  3,  2,  6) (  3,  1, 10)
     0.1586E-02    0.2852E-02    0.2533E-02    0.1561E-02    0.1140E-02
  (  3, 10,  1) (  3,  1,  1) (  3,  1, 10) (  3,  1, 10) (  3,  1, 10)
     0.5875E-03    0.7739E-03    0.5229E-03    0.3361E-03    0.2268E-03
  (  3,  1, 10) (  3,  1, 10) (  3,  1,  1) (  3,  1, 10) (  3,  1, 10)
     0.1361E-03    0.1486E-03    0.1115E-03    0.6580E-04    0.4854E-04
  (  3,  1, 10) (  3,  1,  1) (  3,  1, 10) (  3,  1, 10) (  3,  1, 10)
     0.2837E-04    0.3261E-04    0.2157E-04    0.1460E-04    0.9808E-05
  (  2,  6,  1) (  3,  1, 10) (  3,  2,  1) (  3,  1, 10) (  3,  1, 10)


 OUTPUT CONTROL FOR STRESS PERIOD   27   TIME STEP   4
    SAVE HEAD FOR ALL LAYERS

 HEAD WILL BE SAVED ON UNIT   21 AT END OF TIME STEP   4, STRESS PERIOD   27
 
 SOLVING FOR HEAD 
    31 ITERATIONS FOR TIME STEP   5 IN STRESS PERIOD   27

 MAXIMUM HEAD CHANGE FOR EACH ITERATION:

    HEAD CHANGE   HEAD CHANGE   HEAD CHANGE   HEAD CHANGE   HEAD CHANGE
  LAYER,ROW,COL LAYER,ROW,COL LAYER,ROW,COL LAYER,ROW,COL LAYER,ROW,COL
 ----------------------------------------------------------------------
    -0.5833        0.8886        0.9754       -0.7929        -2.424    
  (  2,  3,  6) (  3,  1,  7) (  3,  3,  2) (  3, 10, 10) (  3,  1,  1)
     0.6843        0.3932        0.1330        0.6891E-01   -0.4672E-01
  (  3,  1, 10) (  3,  9,  3) (  2,  1,  7) (  2, 10,  1) (  2, 10, 10)
     0.7485E-01    0.1333E-01   -0.5787E-02   -0.3049E-02   -0.1994E-02
  (  2,  6,  1) (  2,  1,  2) (  3,  7,  3) (  3,  6,  1) (  3,  7,  2)
    -0.1987E-02   -0.1347E-02   -0.1046E-02   -0.5700E-03   -0.3650E-03
  (  2,  6,  1) (  3,  7,  2) (  3,  7,  3) (  3,  7,  2) (  3,  6,  2)
    -0.1660E-03   -0.2489E-03   -0.1986E-03   -0.1058E-03   -0.7038E-04
  (  3, 10, 10) (  3,  7,  2) (  3,  7,  3) (  3,  6,  2) (  3,  7,  3)
    -0.2808E-04   -0.4703E-04   -0.3676E-04   -0.2046E-04   -0.1323E-04
  (  3,  6,  1) (  3,  7,  3) (  3,  6,  2) (  3,  7,  4) (  3,  6,  2)
    -0.5614E-05
  (  3,  6,  1)


 OUTPUT CONTROL FOR STRESS PERIOD   27   TIME STEP   5
    SAVE HEAD FOR ALL LAYERS

 HEAD WILL BE SAVED ON UNIT   21 AT END OF TIME STEP   5, STRESS PERIOD   27
 
 SOLVING FOR HEAD 
    32 ITERATIONS FOR TIME STEP   6 IN STRESS PERIOD   27

 MAXIMUM HEAD CHANGE FOR EACH ITERATION:

    HEAD CHANGE   HEAD CHANGE   HEAD CHANGE   HEAD CHANGE   HEAD CHANGE
  LAYER,ROW,COL LAYER,ROW,COL LAYER,ROW,COL LAYER,ROW,COL LAYER,ROW,COL
 ----------------------------------------------------------------------
    -0.6747        0.6303        0.4369       -0.9422        -1.108    
  (  2,  3,  6) (  2,  3,  6) (  3,  3,  1) (  3, 10,  2) (  3,  1,  1)
     0.5247        0.3217        0.9395E-01    0.3462E-01   -0.3139E-01
  (  3,  1, 10) (  3,  2,  2) (  2,  1,  9) (  2, 10,  1) (  2, 10, 10)
     0.3089E-01   -0.1179E-01   -0.9647E-02   -0.4849E-02   -0.2883E-02
  (  2,  7,  1) (  3,  2,  6) (  3,  3,  4) (  3,  2,  6) (  3,  2,  6)
    -0.2290E-02   -0.1931E-02   -0.1661E-02   -0.8027E-03   -0.5071E-03
  (  2,  7,  1) (  3,  2,  3) (  3,  3,  5) (  3,  3,  6) (  3,  3,  5)
    -0.4051E-03   -0.3368E-03   -0.2784E-03   -0.1424E-03   -0.8517E-04
  (  2,  9,  1) (  3,  2,  6) (  3,  3,  5) (  3,  3,  5) (  3,  3,  6)
    -0.3779E-04   -0.5690E-04   -0.4907E-04   -0.2390E-04   -0.1545E-04
  (  2,  8,  1) (  3,  3,  6) (  3,  3,  5) (  3,  3,  7) (  3,  3,  6)
    -0.1122E-04   -0.4108E-05
  (  2,  9,  1) (  3,  2,  6)


 OUTPUT CONTROL FOR STRESS PERIOD   27   TIME STEP   6
    PRINT BUDGET
    PRINT HEAD FOR ALL LAYERS
    SAVE HEAD FOR ALL LAYERS
    SAVE DRAWDOWN FOR ALL LAYERS
1
              HEAD IN LAYER   1 AT END OF TIME STEP   6 IN STRESS PERIOD   27
  ---------------------------------------------------------------------------

           1       2       3       4       5       6       7       8       9      10
 ...................................................................................
   1    19.97   19.62   18.95   18.53   18.32   18.32   18.52   18.94   19.62   19.97
   2    18.97   18.46   18.03   17.73   17.57   17.57   17.72   18.02   18.45   18.96
   3    17.53   17.03   16.66   16.41   16.28   16.28   16.40   16.65   17.02   17.52
   4    15.58   15.15   14.84   14.65   14.56   14.55   14.65   14.84   15.14   15.57
   5    12.82   12.73   12.63   12.54   12.50   12.50   12.54   12.62   12.72   12.81
   6    10.41   10.38   10.34   10.31   10.29   10.29   10.30   10.34   10.38   10.40
   7     8.11    8.09    8.06    8.02    8.00    8.00    8.02    8.05    8.08    8.10
   8     5.89    5.85    5.77    5.68    5.64    5.64    5.68    5.76    5.84    5.89
   9     3.88    3.73    3.48    3.19    3.07    3.07    3.19    3.48    3.73    3.87
  10     2.43    2.08    1.31    0.00    0.00    0.00    0.00    1.31    2.08    2.43
1
              HEAD IN LAYER   2 AT END OF TIME STEP   6 IN STRESS PERIOD   27
  ---------------------------------------------------------------------------

           1       2       3       4       5       6       7       8       9      10
 ...................................................................................
   1    -4.67   -4.66   -4.66   -4.67   -4.69   -4.71   -4.72   -4.74   -4.77   -4.79
   2    -4.74   -3.89   -4.20   -4.69   -5.18   -5.55   -5.52   -5.20   -4.83   -4.93
   3    -4.85   -4.40   -4.90   -5.72   -6.82   -7.48   -7.27   -6.68   -5.77   -5.09
   4    -4.98   -4.67   -5.07   -5.67   -6.41   -7.03   -7.01   -6.42   -5.79   -5.23
   5    -5.14   -4.86   -5.03   -5.31   -5.60   -5.82   -5.85   -5.72   -5.54   -5.37
   6    -5.30   -5.02   -5.07   -5.19   -5.30   -5.39   -5.43   -5.42   -5.40   -5.51
   7    -5.48   -5.28   -5.30   -5.36   -5.42   -5.46   -5.48   -5.48   -5.50   -5.65
   8    -5.67   -5.70   -5.75   -5.82   -5.87   -5.89   -5.88   -5.86   -5.82   -5.79
   9    -5.85   -6.24   -6.41   -6.56   -6.63   -6.64   -6.59   -6.47   -6.31   -5.94
  10    -6.03   -6.07   -6.10   -6.13   -6.15   -6.15   -6.15   -6.13   -6.10   -6.07
1
              HEAD IN LAYER   3 AT END OF TIME STEP   6 IN STRESS PERIOD   27
  ---------------------------------------------------------------------------

           1       2       3       4       5       6       7       8       9      10
 ...................................................................................
   1   -25.60  -25.77  -26.09  -26.51  -26.95  -27.30  -27.47  -27.46  -27.39  -27.33
   2   -25.61  -25.87  -26.39  -27.12  -28.00  -28.78  -28.86  -28.46  -28.05  -27.82
   3   -25.27  -25.66  -26.50  -27.90  -30.14  -33.75  -32.90  -30.20  -28.73  -28.08
   4   -24.05  -24.37  -25.02  -26.04  -27.48  -29.35  -29.09  -27.74  -26.87  -26.44
   5   -22.21  -22.38  -22.72  -23.20  -23.73  -24.19  -24.28  -24.10  -23.88  -23.75
   6   -20.28  -20.36  -20.52  -20.72  -20.94  -21.11  -21.20  -21.21  -21.19  -21.17
   7   -18.58  -18.62  -18.69  -18.78  -18.88  -18.96  -19.02  -19.06  -19.07  -19.08
   8   -17.26  -17.28  -17.32  -17.36  -17.41  -17.45  -17.49  -17.52  -17.53  -17.54
   9   -16.38  -16.39  -16.41  -16.43  -16.46  -16.48  -16.51  -16.53  -16.54  -16.54
  10   -15.93  -15.94  -15.95  -15.97  -15.99  -16.01  -16.02  -16.04  -16.05  -16.05

 HEAD WILL BE SAVED ON UNIT   21 AT END OF TIME STEP   6, STRESS PERIOD   27

 DRAWDOWN WILL BE SAVED ON UNIT   22 AT END OF TIME STEP   6, STRESS PERIOD   27
1
  VOLUMETRIC BUDGET FOR ENTIRE MODEL AT END OF TIME STEP  6 IN STRESS PERIOD  27
  ------------------------------------------------------------------------------

     CUMULATIVE VOLUMES      L**3       RATES FOR THIS TIME STEP      L**3/T
     ------------------                 ------------------------

           IN:                                      IN:
           ---                                      ---
             STORAGE =    40516160.0000               STORAGE =        3190.1387
       CONSTANT HEAD =      640298.6250         CONSTANT HEAD =         147.4374
               WELLS =   284963904.0000                 WELLS =       30000.0000
    INST. IB STORAGE =    58116892.0000      INST. IB STORAGE =        4991.0034
    DELAY IB STORAGE =   148015216.0000      DELAY IB STORAGE =       14975.1182

            TOTAL IN =   532252480.0000              TOTAL IN =       53303.6992

          OUT:                                     OUT:
          ----                                     ----
             STORAGE =           0.0000               STORAGE =           0.0000
       CONSTANT HEAD =   247318848.0000         CONSTANT HEAD =       23303.7285
               WELLS =   284933920.0000                 WELLS =       30000.0000
    INST. IB STORAGE =           0.0000      INST. IB STORAGE =           0.0000
    DELAY IB STORAGE =           0.0000      DELAY IB STORAGE =           0.0000

           TOTAL OUT =   532252768.0000             TOTAL OUT =       53303.7266

            IN - OUT =        -288.0000              IN - OUT =      -2.7344E-02

 PERCENT DISCREPANCY =           0.00     PERCENT DISCREPANCY =           0.00






          TIME SUMMARY AT END OF TIME STEP   6 IN STRESS PERIOD   27
                    SECONDS     MINUTES      HOURS       DAYS        YEARS
                    -----------------------------------------------------------
   TIME STEP LENGTH 9.18681E+06 1.53113E+05  2551.9      106.33     0.29111    
 STRESS PERIOD TIME 3.15619E+07 5.26032E+05  8767.2      365.30      1.0001    
         TOTAL TIME 8.20696E+08 1.36783E+07 2.27971E+05  9498.8      26.006    
1

                               VOLUMETRIC BUDGET FOR SYSTEMS OF DELAY INTERBEDS
                                          AT END OF TIME STEP  6 IN STRESS PERIOD 27

          |   C U M U L A T I V E   V O L U M E S   L**3           | R A T E S   F O R  T H I S  T I M E  S T E P   L**3/T  |
   SYSTEM |    CHANGE IN     BOUNDARY                    PERCENT   |    CHANGE IN     BOUNDARY                    PERCENT   |
   NUMBER |     STORAGE        FLOW           SUM      DISCREPANCY |     STORAGE        FLOW           SUM      DISCREPANCY |
  --------|--------------------------------------------------------|--------------------------------------------------------|
      1    0.10350E+06   -0.10350E+06     0.0000         0.0000         8.4712        -8.4712       -0.19073E-05   -0.22516E-04
      2    0.14791E+09   -0.14791E+09     0.0000         0.0000         14967.        -14967.       -0.97656E-03   -0.65249E-05
  --------|--------------------------------------------------------|--------------------------------------------------------|
 TOTALS:    0.14802E+09   -0.14802E+09     0.0000         0.0000         14975.        -14975.       -0.97656E-03   -0.65212E-05
1
                            STRESS PERIOD NO.   28, LENGTH =   365.3000    
                            -----------------------------------------------

                              NUMBER OF TIME STEPS =     6

                               MULTIPLIER FOR DELT =     1.300

                            INITIAL TIME STEP SIZE =   28.63744    

 REUSING NON-PARAMETER WELLS FROM LAST STRESS PERIOD

     14 WELLS
 
 SOLVING FOR HEAD 

    43 ITERATIONS FOR TIME STEP   1 IN STRESS PERIOD   28

 MAXIMUM HEAD CHANGE FOR EACH ITERATION:

    HEAD CHANGE   HEAD CHANGE   HEAD CHANGE   HEAD CHANGE   HEAD CHANGE
  LAYER,ROW,COL LAYER,ROW,COL LAYER,ROW,COL LAYER,ROW,COL LAYER,ROW,COL
 ----------------------------------------------------------------------
      1.137         3.257         2.518        -1.187        -2.541    
  (  3, 10,  1) (  3,  1, 10) (  3,  1,  1) (  3,  1,  1) (  3,  1,  1)
    -0.2174       -0.5764        -1.288        -1.047        0.8318    
  (  3,  1, 10) (  3,  1,  1) (  3,  1, 10) (  3,  4,  1) (  3, 10,  1)
    -0.5403E-01   -0.9498E-02   -0.4097E-02   -0.2981E-02   -0.1334E-02
  (  2,  7,  1) (  2,  1,  2) (  3,  2,  7) (  3,  3,  6) (  3,  2,  1)
    -0.1289E-02   -0.7327E-03   -0.5742E-03    0.1351E-02    0.6530E-03
  (  3,  1, 10) (  3, 10,  3) (  3,  4,  1) (  3,  8,  5) (  3,  1,  1)
     0.1355E-02    0.1313E-02    0.1344E-02    0.1586E-02    0.1345E-02
  (  3, 10, 10) (  3, 10,  3) (  3, 10, 10) (  3,  2,  1) (  3,  1,  1)
     0.9299E-03    0.9132E-03    0.6065E-03    0.4622E-03    0.3379E-03
  (  3,  1,  1) (  3,  1,  1) (  3,  1,  1) (  3,  1,  1) (  3,  1,  1)
     0.2417E-03    0.2048E-03    0.1596E-03    0.1095E-03    0.8444E-04
  (  3,  1,  1) (  3,  1,  1) (  3,  1,  1) (  3,  1,  1) (  3,  1,  1)
     0.5761E-04    0.5471E-04    0.3672E-04    0.2808E-04    0.2047E-04
  (  3,  1,  1) (  3,  1,  1) (  3,  1,  1) (  3,  1,  1) (  3,  1,  1)
     0.1537E-04    0.1178E-04    0.5631E-05
  (  3,  1,  1) (  3,  1,  1) (  3,  1,  1)


 OUTPUT CONTROL FOR STRESS PERIOD   28   TIME STEP   1
    SAVE HEAD FOR ALL LAYERS

 HEAD WILL BE SAVED ON UNIT   21 AT END OF TIME STEP   1, STRESS PERIOD   28
 
 SOLVING FOR HEAD 
    41 ITERATIONS FOR TIME STEP   2 IN STRESS PERIOD   28

 MAXIMUM HEAD CHANGE FOR EACH ITERATION:

    HEAD CHANGE   HEAD CHANGE   HEAD CHANGE   HEAD CHANGE   HEAD CHANGE
  LAYER,ROW,COL LAYER,ROW,COL LAYER,ROW,COL LAYER,ROW,COL LAYER,ROW,COL
 ----------------------------------------------------------------------
      1.334         2.239         2.373       -0.9590        -2.678    
  (  3,  1, 10) (  3,  1,  8) (  3,  2,  1) (  3,  1,  3) (  3,  1,  1)
     0.2504       -0.4477        -1.132        0.1934       -0.3767E-01
  (  2,  3,  6) (  3,  1,  1) (  3,  1, 10) (  3, 10,  1) (  2,  1,  1)
    -0.4853E-01   -0.1194E-01   -0.1972E-02   -0.1202E-02   -0.1374E-02
  (  2,  7,  1) (  2,  1,  2) (  3,  6,  4) (  3,  2,  3) (  3,  4,  6)
     0.1051E-02    0.7804E-03    0.2071E-02    0.9599E-03    0.2469E-02
  (  3, 10, 10) (  3, 10,  2) (  3,  3, 10) (  3,  6, 10) (  3,  1,  1)
     0.1132E-02    0.2348E-02    0.1913E-02    0.1386E-02    0.1020E-02
  (  3,  1,  7) (  3,  7,  2) (  3,  1,  7) (  3,  1,  7) (  3,  1,  7)
     0.6412E-03    0.6466E-03    0.4697E-03    0.3219E-03    0.2366E-03
  (  3,  1,  7) (  3,  1,  7) (  3,  1,  7) (  3,  1,  7) (  3,  1,  7)
     0.1481E-03    0.1548E-03    0.1075E-03    0.7484E-04    0.5520E-04
  (  3,  1,  7) (  3,  1,  7) (  3,  1,  7) (  3,  1,  7) (  3,  1,  7)
     0.3572E-04    0.3513E-04    0.2593E-04    0.1740E-04    0.1346E-04
  (  3,  1,  7) (  3,  1,  7) (  3,  1,  7) (  3,  1,  7) (  3,  1,  7)
     0.8409E-05
  (  3,  1,  7)


 OUTPUT CONTROL FOR STRESS PERIOD   28   TIME STEP   2
    SAVE HEAD FOR ALL LAYERS

 HEAD WILL BE SAVED ON UNIT   21 AT END OF TIME STEP   2, STRESS PERIOD   28
 
 SOLVING FOR HEAD 
    39 ITERATIONS FOR TIME STEP   3 IN STRESS PERIOD   28

 MAXIMUM HEAD CHANGE FOR EACH ITERATION:

    HEAD CHANGE   HEAD CHANGE   HEAD CHANGE   HEAD CHANGE   HEAD CHANGE
  LAYER,ROW,COL LAYER,ROW,COL LAYER,ROW,COL LAYER,ROW,COL LAYER,ROW,COL
 ----------------------------------------------------------------------
     0.8880         1.924         1.832       -0.7353        -2.679    
  (  3, 10, 10) (  3,  1,  8) (  3,  3,  6) (  3, 10, 10) (  3,  1,  1)
     0.4463       -0.3317       -0.9224        0.4521       -0.3314E-01
  (  2,  3,  6) (  3,  1,  1) (  3,  1, 10) (  3, 10,  1) (  2,  1,  1)
    -0.4244E-01   -0.1347E-01   -0.4068E-02   -0.1606E-02   -0.1284E-02
  (  2,  6,  1) (  2,  1,  2) (  3,  2,  5) (  3,  6,  8) (  3,  2,  5)
     0.1394E-02    0.1444E-02    0.1710E-02    0.2322E-02    0.2709E-02
  (  3,  1,  1) (  3, 10, 10) (  3,  1, 10) (  3, 10,  8) (  3,  1, 10)
     0.1585E-02    0.1863E-02    0.1279E-02    0.8271E-03    0.5724E-03
  (  3,  1,  1) (  3,  2,  4) (  3,  3,  1) (  3,  1, 10) (  3,  1, 10)
     0.3675E-03    0.3947E-03    0.2759E-03    0.1731E-03    0.1285E-03
  (  3,  1, 10) (  3,  3,  2) (  3,  1, 10) (  3,  3,  1) (  3,  1, 10)
     0.7451E-04    0.8590E-04    0.5958E-04    0.3983E-04    0.2692E-04
  (  3,  1,  1) (  3,  1, 10) (  3,  3,  1) (  3,  1, 10) (  3,  3,  1)
     0.1700E-04    0.1816E-04    0.1308E-04    0.9206E-05
  (  3,  1, 10) (  3,  3,  2) (  3,  2,  6) (  3,  1,  1)


 OUTPUT CONTROL FOR STRESS PERIOD   28   TIME STEP   3
    SAVE HEAD FOR ALL LAYERS

 HEAD WILL BE SAVED ON UNIT   21 AT END OF TIME STEP   3, STRESS PERIOD   28
 
 SOLVING FOR HEAD 
    35 ITERATIONS FOR TIME STEP   4 IN STRESS PERIOD   28

 MAXIMUM HEAD CHANGE FOR EACH ITERATION:

    HEAD CHANGE   HEAD CHANGE   HEAD CHANGE   HEAD CHANGE   HEAD CHANGE
  LAYER,ROW,COL LAYER,ROW,COL LAYER,ROW,COL LAYER,ROW,COL LAYER,ROW,COL
 ----------------------------------------------------------------------
     0.7312         1.463         1.436       -0.7262        -2.629    
  (  3, 10, 10) (  3,  1, 10) (  3,  2,  3) (  3, 10, 10) (  3,  1,  1)
     0.6973        0.5524E-01   -0.1764E-01   -0.1311E-01   -0.9805E-02
  (  2,  3,  6) (  2, 10,  2) (  3,  1, 10) (  3,  1,  1) (  3,  3,  6)
    -0.3875E-02   -0.5685E-02   -0.3009E-02   -0.1582E-02    0.1676E-02
  (  3,  1,  1) (  3,  2,  7) (  3,  6,  3) (  3,  2, 10) (  3,  1,  4)
     0.1417E-02    0.2809E-02    0.2375E-02    0.1517E-02    0.1050E-02
  (  3, 10, 10) (  3,  1,  1) (  3,  2,  4) (  3,  1,  1) (  3,  1,  2)
     0.5758E-03    0.7345E-03    0.5196E-03    0.3024E-03    0.2133E-03
  (  3,  1,  1) (  3,  2,  2) (  3,  1,  1) (  3,  1, 10) (  3,  1,  2)
     0.1317E-03    0.1479E-03    0.1027E-03    0.6181E-04    0.4270E-04
  (  2,  6,  1) (  3,  1,  1) (  3,  2,  3) (  3,  1,  2) (  3,  1,  2)
     0.2780E-04    0.3000E-04    0.2178E-04    0.1288E-04    0.8488E-05
  (  2,  7,  1) (  3,  2,  2) (  3,  1,  1) (  3,  2, 10) (  3,  1,  3)


 OUTPUT CONTROL FOR STRESS PERIOD   28   TIME STEP   4
    SAVE HEAD FOR ALL LAYERS

 HEAD WILL BE SAVED ON UNIT   21 AT END OF TIME STEP   4, STRESS PERIOD   28
 
 SOLVING FOR HEAD 
    31 ITERATIONS FOR TIME STEP   5 IN STRESS PERIOD   28

 MAXIMUM HEAD CHANGE FOR EACH ITERATION:

    HEAD CHANGE   HEAD CHANGE   HEAD CHANGE   HEAD CHANGE   HEAD CHANGE
  LAYER,ROW,COL LAYER,ROW,COL LAYER,ROW,COL LAYER,ROW,COL LAYER,ROW,COL
 ----------------------------------------------------------------------
     0.5349        0.8670        0.9555       -0.8207        -2.359    
  (  3,  1, 10) (  3,  1,  5) (  3,  1,  1) (  3, 10, 10) (  3,  1,  1)
     0.6620        0.3790        0.1625        0.4830E-01   -0.3694E-01
  (  3,  1, 10) (  3,  9,  3) (  2,  9,  5) (  2,  9,  6) (  2, 10, 10)
     0.7232E-01    0.1278E-01   -0.5515E-02   -0.2958E-02   -0.1909E-02
  (  2,  6,  1) (  2,  1,  2) (  3,  7,  4) (  3,  7,  1) (  3,  8,  2)
    -0.1995E-02   -0.1291E-02   -0.1009E-02   -0.5398E-03   -0.3586E-03
  (  2,  6,  1) (  3,  8,  3) (  3,  7,  1) (  3,  8,  3) (  3,  7,  1)
    -0.1463E-03   -0.2412E-03   -0.1882E-03   -0.1034E-03   -0.6800E-04
  (  3,  7,  1) (  3,  8,  2) (  3,  8,  3) (  3,  7,  1) (  3,  8,  3)
    -0.2931E-04   -0.4578E-04   -0.3535E-04   -0.1944E-04   -0.1264E-04
  (  3,  7,  1) (  3,  8,  3) (  3,  7,  1) (  3,  8,  3) (  3,  7,  1)
    -0.5624E-05
  (  3,  7,  1)


 OUTPUT CONTROL FOR STRESS PERIOD   28   TIME STEP   5
    SAVE HEAD FOR ALL LAYERS

 HEAD WILL BE SAVED ON UNIT   21 AT END OF TIME STEP   5, STRESS PERIOD   28
 
 SOLVING FOR HEAD 
    32 ITERATIONS FOR TIME STEP   6 IN STRESS PERIOD   28

 MAXIMUM HEAD CHANGE FOR EACH ITERATION:

    HEAD CHANGE   HEAD CHANGE   HEAD CHANGE   HEAD CHANGE   HEAD CHANGE
  LAYER,ROW,COL LAYER,ROW,COL LAYER,ROW,COL LAYER,ROW,COL LAYER,ROW,COL
 ----------------------------------------------------------------------
    -0.6031        0.5545        0.4442       -0.9274        -1.203    
  (  2,  3,  7) (  2,  3,  7) (  3,  1,  1) (  3, 10,  3) (  3,  1,  1)
     0.5873        0.3707        0.1125        0.4353E-01   -0.3731E-01
  (  3,  1, 10) (  3,  2,  2) (  2,  1,  9) (  2, 10,  1) (  2, 10, 10)
     0.3819E-01   -0.1328E-01   -0.1110E-01   -0.5513E-02   -0.3271E-02
  (  2,  7,  1) (  3,  2,  6) (  3,  3,  4) (  3,  3,  5) (  3,  3,  5)
    -0.2467E-02   -0.2183E-02   -0.1891E-02   -0.9127E-03   -0.5723E-03
  (  2,  7,  1) (  3,  3,  4) (  3,  3,  4) (  3,  3,  5) (  3,  3,  5)
    -0.4444E-03   -0.3740E-03   -0.3154E-03   -0.1611E-03   -0.9439E-04
  (  2,  9,  1) (  3,  3,  6) (  3,  3,  5) (  3,  3,  6) (  3,  3,  6)
    -0.3639E-04   -0.6334E-04   -0.5550E-04   -0.2646E-04   -0.1675E-04
  (  2,  8,  1) (  3,  3,  6) (  3,  3,  5) (  3,  3,  6) (  3,  3,  4)
    -0.1236E-04   -0.4570E-05
  (  2,  9,  1) (  3,  3,  5)


 OUTPUT CONTROL FOR STRESS PERIOD   28   TIME STEP   6
    PRINT BUDGET
    PRINT HEAD FOR ALL LAYERS
    SAVE HEAD FOR ALL LAYERS
    SAVE DRAWDOWN FOR ALL LAYERS
1
              HEAD IN LAYER   1 AT END OF TIME STEP   6 IN STRESS PERIOD   28
  ---------------------------------------------------------------------------

           1       2       3       4       5       6       7       8       9      10
 ...................................................................................
   1    19.89   19.54   18.87   18.44   18.24   18.24   18.44   18.86   19.53   19.89
   2    18.89   18.38   17.95   17.65   17.49   17.49   17.64   17.94   18.37   18.88
   3    17.45   16.95   16.58   16.33   16.20   16.20   16.32   16.57   16.94   17.44
   4    15.51   15.07   14.77   14.58   14.48   14.48   14.57   14.76   15.06   15.50
   5    12.75   12.66   12.56   12.48   12.43   12.43   12.47   12.55   12.65   12.74
   6    10.35   10.32   10.28   10.25   10.23   10.23   10.24   10.28   10.32   10.34
   7     8.06    8.04    8.00    7.97    7.95    7.95    7.97    8.00    8.03    8.05
   8     5.86    5.81    5.73    5.65    5.60    5.60    5.64    5.73    5.80    5.85
   9     3.85    3.71    3.45    3.17    3.05    3.05    3.17    3.45    3.70    3.85
  10     2.41    2.06    1.30    0.00    0.00    0.00    0.00    1.30    2.06    2.41
1
              HEAD IN LAYER   2 AT END OF TIME STEP   6 IN STRESS PERIOD   28
  ---------------------------------------------------------------------------

           1       2       3       4       5       6       7       8       9      10
 ...................................................................................
   1    -4.95   -4.95   -4.95   -4.96   -4.98   -4.99   -5.01   -5.03   -5.05   -5.08
   2    -5.02   -4.19   -4.50   -4.99   -5.49   -5.85   -5.82   -5.50   -5.14   -5.22
   3    -5.13   -4.70   -5.20   -6.01   -7.01   -7.65   -7.42   -6.97   -6.07   -5.37
   4    -5.26   -4.96   -5.36   -5.96   -6.69   -7.09   -7.05   -6.69   -6.08   -5.51
   5    -5.41   -5.14   -5.31   -5.59   -5.88   -6.10   -6.12   -6.00   -5.82   -5.65
   6    -5.58   -5.29   -5.34   -5.46   -5.58   -5.67   -5.70   -5.69   -5.68   -5.78
   7    -5.75   -5.54   -5.56   -5.62   -5.68   -5.72   -5.74   -5.75   -5.76   -5.91
   8    -5.93   -5.95   -6.01   -6.07   -6.12   -6.14   -6.14   -6.11   -6.07   -6.06
   9    -6.11   -6.48   -6.65   -6.80   -6.87   -6.88   -6.83   -6.71   -6.56   -6.20
  10    -6.29   -6.32   -6.36   -6.39   -6.40   -6.41   -6.40   -6.38   -6.36   -6.33
1
              HEAD IN LAYER   3 AT END OF TIME STEP   6 IN STRESS PERIOD   28
  ---------------------------------------------------------------------------

           1       2       3       4       5       6       7       8       9      10
 ...................................................................................
   1   -26.13  -26.30  -26.62  -27.04  -27.48  -27.83  -28.00  -28.00  -27.92  -27.86
   2   -26.14  -26.40  -26.91  -27.65  -28.52  -29.30  -29.39  -28.99  -28.58  -28.34
   3   -25.79  -26.18  -27.02  -28.42  -30.66  -34.27  -33.42  -30.72  -29.25  -28.60
   4   -24.56  -24.88  -25.53  -26.55  -27.99  -29.86  -29.60  -28.25  -27.38  -26.95
   5   -22.71  -22.88  -23.22  -23.70  -24.23  -24.69  -24.78  -24.60  -24.38  -24.25
   6   -20.76  -20.84  -21.00  -21.21  -21.42  -21.60  -21.69  -21.70  -21.68  -21.65
   7   -19.05  -19.09  -19.16  -19.26  -19.35  -19.44  -19.50  -19.53  -19.55  -19.55
   8   -17.73  -17.75  -17.78  -17.83  -17.87  -17.92  -17.96  -17.98  -18.00  -18.00
   9   -16.83  -16.84  -16.86  -16.89  -16.92  -16.94  -16.96  -16.98  -16.99  -17.00
  10   -16.39  -16.39  -16.40  -16.42  -16.44  -16.46  -16.48  -16.49  -16.50  -16.50

 HEAD WILL BE SAVED ON UNIT   21 AT END OF TIME STEP   6, STRESS PERIOD   28

 DRAWDOWN WILL BE SAVED ON UNIT   22 AT END OF TIME STEP   6, STRESS PERIOD   28
1
  VOLUMETRIC BUDGET FOR ENTIRE MODEL AT END OF TIME STEP  6 IN STRESS PERIOD  28
  ------------------------------------------------------------------------------

     CUMULATIVE VOLUMES      L**3       RATES FOR THIS TIME STEP      L**3/T
     ------------------                 ------------------------

           IN:                                      IN:
           ---                                      ---
             STORAGE =    41669000.0000               STORAGE =        3132.8206
       CONSTANT HEAD =      695499.2500         CONSTANT HEAD =         153.5645
               WELLS =   295922880.0000                 WELLS =       30000.0000
    INST. IB STORAGE =    59935276.0000      INST. IB STORAGE =        4967.1885
    DELAY IB STORAGE =   153463040.0000      DELAY IB STORAGE =       14874.0664

            TOTAL IN =   551685696.0000              TOTAL IN =       53127.6406

          OUT:                                     OUT:
          ----                                     ----
             STORAGE =           0.0000               STORAGE =           0.0000
       CONSTANT HEAD =   255793072.0000         CONSTANT HEAD =       23127.7148
               WELLS =   295892896.0000                 WELLS =       30000.0000
    INST. IB STORAGE =           0.0000      INST. IB STORAGE =           0.0000
    DELAY IB STORAGE =           0.0000      DELAY IB STORAGE =           0.0000

           TOTAL OUT =   551685952.0000             TOTAL OUT =       53127.7148

            IN - OUT =        -256.0000              IN - OUT =      -7.4219E-02

 PERCENT DISCREPANCY =           0.00     PERCENT DISCREPANCY =           0.00






          TIME SUMMARY AT END OF TIME STEP   6 IN STRESS PERIOD   28
                    SECONDS     MINUTES      HOURS       DAYS        YEARS
                    -----------------------------------------------------------
   TIME STEP LENGTH 9.18681E+06 1.53113E+05  2551.9      106.33     0.29111    
 STRESS PERIOD TIME 3.15619E+07 5.26032E+05  8767.2      365.30      1.0001    
         TOTAL TIME 8.52258E+08 1.42043E+07 2.36738E+05  9864.1      27.006    
1

                               VOLUMETRIC BUDGET FOR SYSTEMS OF DELAY INTERBEDS
                                          AT END OF TIME STEP  6 IN STRESS PERIOD 28

          |   C U M U L A T I V E   V O L U M E S   L**3           | R A T E S   F O R  T H I S  T I M E  S T E P   L**3/T  |
   SYSTEM |    CHANGE IN     BOUNDARY                    PERCENT   |    CHANGE IN     BOUNDARY                    PERCENT   |
   NUMBER |     STORAGE        FLOW           SUM      DISCREPANCY |     STORAGE        FLOW           SUM      DISCREPANCY |
  --------|--------------------------------------------------------|--------------------------------------------------------|
      1    0.10654E+06   -0.10654E+06     0.0000         0.0000         8.4001        -8.4001        0.47684E-05    0.56766E-04
      2    0.15336E+09   -0.15336E+09     0.0000         0.0000         14866.        -14866.       -0.19531E-02   -0.13138E-04
  --------|--------------------------------------------------------|--------------------------------------------------------|
 TOTALS:    0.15346E+09   -0.15346E+09     0.0000         0.0000         14874.        -14874.       -0.19531E-02   -0.13131E-04
1
                            STRESS PERIOD NO.   29, LENGTH =   365.3000    
                            -----------------------------------------------

                              NUMBER OF TIME STEPS =     6

                               MULTIPLIER FOR DELT =     1.300

                            INITIAL TIME STEP SIZE =   28.63744    

 REUSING NON-PARAMETER WELLS FROM LAST STRESS PERIOD

     14 WELLS
 
 SOLVING FOR HEAD 

    43 ITERATIONS FOR TIME STEP   1 IN STRESS PERIOD   29

 MAXIMUM HEAD CHANGE FOR EACH ITERATION:

    HEAD CHANGE   HEAD CHANGE   HEAD CHANGE   HEAD CHANGE   HEAD CHANGE
  LAYER,ROW,COL LAYER,ROW,COL LAYER,ROW,COL LAYER,ROW,COL LAYER,ROW,COL
 ----------------------------------------------------------------------
      1.234         3.260         2.344        -1.167        -2.506    
  (  3, 10,  1) (  3,  1, 10) (  3, 10, 10) (  3,  1,  1) (  3,  2,  1)
    -0.2218       -0.5832        -1.273        -1.027        0.7985    
  (  3,  1, 10) (  3,  1,  1) (  3,  1, 10) (  3,  5,  1) (  3, 10,  1)
     0.1424       -0.9432E-02   -0.4147E-02   -0.2993E-02   -0.1371E-02
  (  2,  9,  7) (  2,  1,  2) (  3,  2,  6) (  3,  6,  3) (  3,  2,  1)
    -0.1413E-02   -0.6987E-03   -0.7033E-03    0.1378E-02    0.5729E-03
  (  3,  6,  1) (  3,  6,  5) (  3,  6,  1) (  3,  9,  3) (  3,  1,  4)
     0.1298E-02    0.1130E-02    0.1210E-02    0.1640E-02    0.1344E-02
  (  3, 10, 10) (  3,  8, 10) (  3, 10, 10) (  3,  2,  1) (  3,  1,  4)
     0.8976E-03    0.8828E-03    0.6198E-03    0.4430E-03    0.3307E-03
  (  3,  1,  4) (  3,  2,  7) (  3,  1,  4) (  3,  1,  4) (  3,  1,  4)
     0.2183E-03    0.2153E-03    0.1511E-03    0.1085E-03    0.8134E-04
  (  3,  1,  4) (  3,  2,  7) (  3,  2,  7) (  3,  1,  4) (  3,  1,  4)
     0.5402E-04    0.5198E-04    0.3698E-04    0.2667E-04    0.2025E-04
  (  3,  1,  4) (  3,  2,  7) (  3,  2,  7) (  3,  1,  4) (  3,  1,  4)
     0.1339E-04    0.1104E-04    0.6824E-05
  (  3,  1,  4) (  3,  2,  7) (  3,  1,  4)


 OUTPUT CONTROL FOR STRESS PERIOD   29   TIME STEP   1
    SAVE HEAD FOR ALL LAYERS

 HEAD WILL BE SAVED ON UNIT   21 AT END OF TIME STEP   1, STRESS PERIOD   29
 
 SOLVING FOR HEAD 
    41 ITERATIONS FOR TIME STEP   2 IN STRESS PERIOD   29

 MAXIMUM HEAD CHANGE FOR EACH ITERATION:

    HEAD CHANGE   HEAD CHANGE   HEAD CHANGE   HEAD CHANGE   HEAD CHANGE
  LAYER,ROW,COL LAYER,ROW,COL LAYER,ROW,COL LAYER,ROW,COL LAYER,ROW,COL
 ----------------------------------------------------------------------
     0.9829         2.461         2.170        -1.022        -2.685    
  (  3,  4, 10) (  3,  1,  8) (  3, 10, 10) (  3, 10, 10) (  3,  1,  1)
     0.2402       -0.4540        -1.143        0.1900        0.7840E-01
  (  2,  3,  6) (  3,  1,  1) (  3,  1, 10) (  3, 10,  1) (  2,  3,  5)
    -0.4847E-01   -0.1207E-01   -0.2384E-02   -0.1407E-02   -0.1379E-02
  (  2,  7,  1) (  2,  1,  2) (  3,  5,  3) (  3,  1,  1) (  3,  2,  6)
     0.1005E-02    0.4999E-03    0.2119E-02    0.1129E-02    0.2492E-02
  (  3,  7,  1) (  3, 10, 10) (  3,  5,  1) (  3, 10, 10) (  3,  1,  9)
     0.1116E-02    0.2322E-02    0.1963E-02    0.1351E-02    0.9913E-03
  (  3,  6, 10) (  3,  1, 10) (  3,  2,  1) (  3,  2,  5) (  3,  2,  5)
     0.5963E-03    0.6757E-03    0.4668E-03    0.3131E-03    0.2290E-03
  (  3,  1, 10) (  3,  2,  5) (  3,  2,  5) (  3,  2,  5) (  3,  2,  5)
     0.1462E-03    0.1580E-03    0.1083E-03    0.7265E-04    0.5372E-04
  (  3, 10, 10) (  3,  2,  5) (  3,  2,  5) (  3,  2,  5) (  3,  3,  8)
     0.3217E-04    0.3571E-04    0.2549E-04    0.1704E-04    0.1268E-04
  (  3,  6, 10) (  3,  2,  5) (  3,  3,  8) (  3,  2,  5) (  3,  3,  8)
     0.8000E-05
  (  3,  1,  1)


 OUTPUT CONTROL FOR STRESS PERIOD   29   TIME STEP   2
    SAVE HEAD FOR ALL LAYERS

 HEAD WILL BE SAVED ON UNIT   21 AT END OF TIME STEP   2, STRESS PERIOD   29
 
 SOLVING FOR HEAD 
    39 ITERATIONS FOR TIME STEP   3 IN STRESS PERIOD   29

 MAXIMUM HEAD CHANGE FOR EACH ITERATION:

    HEAD CHANGE   HEAD CHANGE   HEAD CHANGE   HEAD CHANGE   HEAD CHANGE
  LAYER,ROW,COL LAYER,ROW,COL LAYER,ROW,COL LAYER,ROW,COL LAYER,ROW,COL
 ----------------------------------------------------------------------
     0.8325         2.005         1.999       -0.8012        -2.689    
  (  3, 10, 10) (  3,  1, 10) (  3,  2,  1) (  3, 10, 10) (  3,  1,  1)
     0.4628       -0.3340       -0.8953        0.4567        0.4489E-01
  (  2,  3,  6) (  3,  1,  1) (  3,  1, 10) (  3, 10,  1) (  2,  9,  5)
    -0.4114E-01   -0.1236E-01   -0.4032E-02   -0.1740E-02   -0.1299E-02
  (  2,  6,  1) (  2,  1,  2) (  3,  3,  4) (  3,  7,  1) (  3,  2,  3)
     0.1447E-02    0.1536E-02    0.1663E-02    0.2373E-02    0.2669E-02
  (  3,  1,  1) (  3, 10,  1) (  3,  1,  5) (  3, 10,  1) (  3,  1,  4)
     0.1499E-02    0.1853E-02    0.1288E-02    0.8062E-03    0.5787E-03
  (  3,  1,  1) (  3,  2,  2) (  3,  4,  7) (  3,  1,  5) (  3,  1,  8)
     0.3448E-03    0.3963E-03    0.2793E-03    0.1768E-03    0.1264E-03
  (  3,  1, 10) (  3,  4,  7) (  3,  4,  7) (  3,  4,  7) (  3,  1,  4)
     0.7070E-04    0.8607E-04    0.6171E-04    0.3877E-04    0.2822E-04
  (  3,  1,  8) (  3,  4,  7) (  3,  4,  7) (  3,  4,  8) (  3,  4,  7)
     0.1587E-04    0.1891E-04    0.1329E-04    0.8767E-05
  (  3,  1,  7) (  3,  4,  7) (  3,  4,  7) (  3,  1,  9)


 OUTPUT CONTROL FOR STRESS PERIOD   29   TIME STEP   3
    SAVE HEAD FOR ALL LAYERS

 HEAD WILL BE SAVED ON UNIT   21 AT END OF TIME STEP   3, STRESS PERIOD   29
 
 SOLVING FOR HEAD 
    35 ITERATIONS FOR TIME STEP   4 IN STRESS PERIOD   29

 MAXIMUM HEAD CHANGE FOR EACH ITERATION:

    HEAD CHANGE   HEAD CHANGE   HEAD CHANGE   HEAD CHANGE   HEAD CHANGE
  LAYER,ROW,COL LAYER,ROW,COL LAYER,ROW,COL LAYER,ROW,COL LAYER,ROW,COL
 ----------------------------------------------------------------------
     0.7197         1.283         1.480       -0.7812        -2.670    
  (  3,  1, 10) (  3,  1,  8) (  3,  2,  3) (  3, 10, 10) (  3,  1,  1)
     0.7761        0.5410E-01   -0.1630E-01   -0.1305E-01   -0.9620E-02
  (  2,  3,  6) (  2, 10,  2) (  3,  1,  1) (  3,  1,  1) (  3,  1,  1)
    -0.3995E-02   -0.5694E-02   -0.2788E-02   -0.1540E-02    0.1584E-02
  (  3,  1,  1) (  3,  2,  2) (  3,  6,  3) (  3,  1,  2) (  3,  1,  1)
     0.1256E-02    0.2743E-02    0.2460E-02    0.1506E-02    0.1110E-02
  (  3, 10,  8) (  3,  1,  1) (  3,  1, 10) (  3,  1, 10) (  3,  1, 10)
     0.5813E-03    0.7469E-03    0.5160E-03    0.3272E-03    0.2183E-03
  (  3,  1,  1) (  3,  1, 10) (  3,  1,  1) (  3,  1, 10) (  3,  1, 10)
     0.1334E-03    0.1450E-03    0.1092E-03    0.6325E-04    0.4743E-04
  (  3,  1, 10) (  3,  1,  1) (  3,  1, 10) (  3,  1, 10) (  3,  1, 10)
     0.2672E-04    0.3155E-04    0.2114E-04    0.1383E-04    0.9514E-05
  (  2,  7,  1) (  3,  1, 10) (  3,  1,  1) (  3,  1, 10) (  3,  1, 10)


 OUTPUT CONTROL FOR STRESS PERIOD   29   TIME STEP   4
    SAVE HEAD FOR ALL LAYERS

 HEAD WILL BE SAVED ON UNIT   21 AT END OF TIME STEP   4, STRESS PERIOD   29
 
 SOLVING FOR HEAD 
    31 ITERATIONS FOR TIME STEP   5 IN STRESS PERIOD   29

 MAXIMUM HEAD CHANGE FOR EACH ITERATION:

    HEAD CHANGE   HEAD CHANGE   HEAD CHANGE   HEAD CHANGE   HEAD CHANGE
  LAYER,ROW,COL LAYER,ROW,COL LAYER,ROW,COL LAYER,ROW,COL LAYER,ROW,COL
 ----------------------------------------------------------------------
    -0.7257        0.9041        0.8830       -0.8210        -2.292    
  (  2,  3,  6) (  3,  1,  9) (  3, 10, 10) (  3, 10, 10) (  3,  1,  1)
     0.6446        0.3743        0.1252        0.6747E-01   -0.2930E-01
  (  3,  1, 10) (  3,  9,  3) (  2,  1,  7) (  2, 10,  4) (  2, 10,  9)
     0.7151E-01    0.1346E-01   -0.5336E-02   -0.2827E-02   -0.1849E-02
  (  2,  6,  1) (  2,  1,  2) (  3,  7,  3) (  3,  8,  1) (  3,  8,  1)
    -0.1751E-02   -0.1258E-02   -0.9851E-03   -0.5231E-03   -0.3443E-03
  (  2,  6,  1) (  3,  8,  2) (  3,  8,  3) (  3,  8,  3) (  3,  8,  3)
    -0.1400E-03   -0.2371E-03   -0.1829E-03   -0.9895E-04   -0.6571E-04
  (  3,  8,  1) (  3,  8,  2) (  3,  8,  3) (  3,  8,  3) (  3,  8,  3)
    -0.2655E-04   -0.4473E-04   -0.3503E-04   -0.1888E-04   -0.1224E-04
  (  3,  8,  1) (  3,  8,  3) (  3,  8,  3) (  3,  8,  3) (  3,  8,  2)
    -0.4878E-05
  (  3,  8,  1)


 OUTPUT CONTROL FOR STRESS PERIOD   29   TIME STEP   5
    SAVE HEAD FOR ALL LAYERS

 HEAD WILL BE SAVED ON UNIT   21 AT END OF TIME STEP   5, STRESS PERIOD   29
 
 SOLVING FOR HEAD 
    32 ITERATIONS FOR TIME STEP   6 IN STRESS PERIOD   29

 MAXIMUM HEAD CHANGE FOR EACH ITERATION:

    HEAD CHANGE   HEAD CHANGE   HEAD CHANGE   HEAD CHANGE   HEAD CHANGE
  LAYER,ROW,COL LAYER,ROW,COL LAYER,ROW,COL LAYER,ROW,COL LAYER,ROW,COL
 ----------------------------------------------------------------------
    -0.6986        0.6408        0.3896       -0.9117        -1.031    
  (  2,  3,  7) (  2,  3,  7) (  3,  3,  1) (  3, 10,  2) (  3,  1,  1)
     0.4978        0.3005        0.8756E-01    0.3327E-01   -0.2986E-01
  (  3,  1, 10) (  3,  2,  2) (  2,  1,  9) (  2, 10,  1) (  2, 10, 10)
     0.2823E-01   -0.1125E-01   -0.9186E-02   -0.4629E-02   -0.2756E-02
  (  2,  7,  1) (  3,  2,  6) (  3,  3,  4) (  3,  2,  6) (  3,  2,  6)
    -0.2181E-02   -0.1839E-02   -0.1579E-02   -0.7663E-03   -0.4827E-03
  (  2,  7,  1) (  3,  2,  5) (  3,  3,  5) (  3,  3,  6) (  3,  2,  6)
    -0.3527E-03   -0.3214E-03   -0.2652E-03   -0.1352E-03   -0.8116E-04
  (  2,  9,  1) (  3,  2,  6) (  3,  3,  5) (  3,  3,  6) (  3,  3,  6)
    -0.3638E-04   -0.5453E-04   -0.4732E-04   -0.2306E-04   -0.1457E-04
  (  2,  8,  1) (  3,  3,  6) (  3,  3,  5) (  3,  3,  6) (  3,  3,  4)
    -0.1025E-04   -0.3774E-05
  (  2,  9,  1) (  3,  3,  6)


 OUTPUT CONTROL FOR STRESS PERIOD   29   TIME STEP   6
    PRINT BUDGET
    PRINT HEAD FOR ALL LAYERS
    SAVE HEAD FOR ALL LAYERS
    SAVE DRAWDOWN FOR ALL LAYERS
1
              HEAD IN LAYER   1 AT END OF TIME STEP   6 IN STRESS PERIOD   29
  ---------------------------------------------------------------------------

           1       2       3       4       5       6       7       8       9      10
 ...................................................................................
   1    19.82   19.46   18.79   18.36   18.16   18.16   18.36   18.78   19.46   19.81
   2    18.81   18.30   17.87   17.57   17.41   17.41   17.56   17.86   18.29   18.80
   3    17.38   16.88   16.51   16.26   16.13   16.13   16.25   16.50   16.87   17.37
   4    15.44   15.00   14.70   14.51   14.41   14.41   14.50   14.69   14.99   15.43
   5    12.68   12.60   12.49   12.41   12.36   12.36   12.41   12.49   12.59   12.68
   6    10.29   10.26   10.22   10.19   10.17   10.17   10.19   10.22   10.26   10.28
   7     8.01    7.99    7.96    7.92    7.90    7.90    7.92    7.95    7.98    8.00
   8     5.82    5.77    5.69    5.61    5.56    5.56    5.61    5.69    5.77    5.81
   9     3.82    3.68    3.43    3.15    3.03    3.03    3.15    3.43    3.68    3.82
  10     2.39    2.05    1.29    0.00    0.00    0.00    0.00    1.29    2.05    2.39
1
              HEAD IN LAYER   2 AT END OF TIME STEP   6 IN STRESS PERIOD   29
  ---------------------------------------------------------------------------

           1       2       3       4       5       6       7       8       9      10
 ...................................................................................
   1    -5.24   -5.23   -5.24   -5.25   -5.26   -5.28   -5.30   -5.32   -5.34   -5.36
   2    -5.30   -4.48   -4.80   -5.29   -5.78   -6.14   -6.11   -5.79   -5.43   -5.50
   3    -5.41   -4.99   -5.50   -6.29   -7.06   -7.85   -7.58   -7.03   -6.34   -5.65
   4    -5.54   -5.24   -5.65   -6.25   -6.96   -7.19   -7.14   -6.96   -6.36   -5.79
   5    -5.68   -5.42   -5.59   -5.87   -6.16   -6.37   -6.40   -6.28   -6.10   -5.92
   6    -5.84   -5.56   -5.61   -5.73   -5.85   -5.94   -5.97   -5.96   -5.95   -6.05
   7    -6.01   -5.80   -5.82   -5.88   -5.94   -5.98   -6.01   -6.01   -6.02   -6.18
   8    -6.19   -6.20   -6.26   -6.32   -6.37   -6.39   -6.39   -6.36   -6.33   -6.32
   9    -6.37   -6.72   -6.89   -7.00   -7.01   -7.01   -7.00   -6.95   -6.80   -6.46
  10    -6.54   -6.58   -6.61   -6.64   -6.65   -6.66   -6.65   -6.64   -6.61   -6.59
1
              HEAD IN LAYER   3 AT END OF TIME STEP   6 IN STRESS PERIOD   29
  ---------------------------------------------------------------------------

           1       2       3       4       5       6       7       8       9      10
 ...................................................................................
   1   -26.65  -26.82  -27.14  -27.56  -28.00  -28.36  -28.52  -28.52  -28.45  -28.39
   2   -26.66  -26.92  -27.43  -28.17  -29.04  -29.82  -29.91  -29.51  -29.10  -28.86
   3   -26.31  -26.70  -27.53  -28.93  -31.17  -34.79  -33.94  -31.24  -29.77  -29.11
   4   -25.07  -25.38  -26.03  -27.06  -28.49  -30.37  -30.10  -28.76  -27.88  -27.45
   5   -23.20  -23.38  -23.72  -24.19  -24.73  -25.18  -25.27  -25.09  -24.88  -24.74
   6   -21.24  -21.33  -21.48  -21.69  -21.91  -22.08  -22.17  -22.18  -22.16  -22.14
   7   -19.53  -19.56  -19.64  -19.73  -19.83  -19.91  -19.97  -20.00  -20.02  -20.02
   8   -18.19  -18.21  -18.24  -18.29  -18.34  -18.38  -18.42  -18.45  -18.46  -18.47
   9   -17.29  -17.30  -17.32  -17.34  -17.37  -17.40  -17.42  -17.44  -17.45  -17.46
  10   -16.84  -16.85  -16.86  -16.87  -16.89  -16.91  -16.93  -16.94  -16.95  -16.96

 HEAD WILL BE SAVED ON UNIT   21 AT END OF TIME STEP   6, STRESS PERIOD   29

 DRAWDOWN WILL BE SAVED ON UNIT   22 AT END OF TIME STEP   6, STRESS PERIOD   29
1
  VOLUMETRIC BUDGET FOR ENTIRE MODEL AT END OF TIME STEP  6 IN STRESS PERIOD  29
  ------------------------------------------------------------------------------

     CUMULATIVE VOLUMES      L**3       RATES FOR THIS TIME STEP      L**3/T
     ------------------                 ------------------------

           IN:                                      IN:
           ---                                      ---
             STORAGE =    42800756.0000               STORAGE =        3074.3584
       CONSTANT HEAD =      752929.9375         CONSTANT HEAD =         159.6471
               WELLS =   306881856.0000                 WELLS =       30000.0000
    INST. IB STORAGE =    61746340.0000      INST. IB STORAGE =        4949.5796
    DELAY IB STORAGE =   158873408.0000      DELAY IB STORAGE =       14771.4102

            TOTAL IN =   571055296.0000              TOTAL IN =       52954.9961

          OUT:                                     OUT:
          ----                                     ----
             STORAGE =           0.0000               STORAGE =           0.0000
       CONSTANT HEAD =   264203696.0000         CONSTANT HEAD =       22955.0527
               WELLS =   306851872.0000                 WELLS =       30000.0000
    INST. IB STORAGE =           0.0000      INST. IB STORAGE =           0.0000
    DELAY IB STORAGE =           0.0000      DELAY IB STORAGE =           0.0000

           TOTAL OUT =   571055552.0000             TOTAL OUT =       52955.0547

            IN - OUT =        -256.0000              IN - OUT =      -5.8594E-02

 PERCENT DISCREPANCY =           0.00     PERCENT DISCREPANCY =           0.00






          TIME SUMMARY AT END OF TIME STEP   6 IN STRESS PERIOD   29
                    SECONDS     MINUTES      HOURS       DAYS        YEARS
                    -----------------------------------------------------------
   TIME STEP LENGTH 9.18681E+06 1.53113E+05  2551.9      106.33     0.29111    
 STRESS PERIOD TIME 3.15619E+07 5.26032E+05  8767.2      365.30      1.0001    
         TOTAL TIME 8.83820E+08 1.47303E+07 2.45506E+05  10229.      28.007    
1

                               VOLUMETRIC BUDGET FOR SYSTEMS OF DELAY INTERBEDS
                                          AT END OF TIME STEP  6 IN STRESS PERIOD 29

          |   C U M U L A T I V E   V O L U M E S   L**3           | R A T E S   F O R  T H I S  T I M E  S T E P   L**3/T  |
   SYSTEM |    CHANGE IN     BOUNDARY                    PERCENT   |    CHANGE IN     BOUNDARY                    PERCENT   |
   NUMBER |     STORAGE        FLOW           SUM      DISCREPANCY |     STORAGE        FLOW           SUM      DISCREPANCY |
  --------|--------------------------------------------------------|--------------------------------------------------------|
      1    0.10952E+06   -0.10952E+06   -0.78125E-02   -0.71335E-05     8.1379        -8.1379       -0.28610E-05   -0.35157E-04
      2    0.15876E+09   -0.15876E+09     0.0000         0.0000         14763.        -14763.        0.19531E-02    0.13230E-04
  --------|--------------------------------------------------------|--------------------------------------------------------|
 TOTALS:    0.15887E+09   -0.15887E+09     0.0000         0.0000         14771.        -14771.        0.19531E-02    0.13222E-04
1
                            STRESS PERIOD NO.   30, LENGTH =   365.3000    
                            -----------------------------------------------

                              NUMBER OF TIME STEPS =     6

                               MULTIPLIER FOR DELT =     1.300

                            INITIAL TIME STEP SIZE =   28.63744    

 REUSING NON-PARAMETER WELLS FROM LAST STRESS PERIOD

     14 WELLS
 
 SOLVING FOR HEAD 

    43 ITERATIONS FOR TIME STEP   1 IN STRESS PERIOD   30

 MAXIMUM HEAD CHANGE FOR EACH ITERATION:

    HEAD CHANGE   HEAD CHANGE   HEAD CHANGE   HEAD CHANGE   HEAD CHANGE
  LAYER,ROW,COL LAYER,ROW,COL LAYER,ROW,COL LAYER,ROW,COL LAYER,ROW,COL
 ----------------------------------------------------------------------
      1.248         3.100         2.459        -1.176        -2.472    
  (  3,  1,  8) (  3,  1, 10) (  3,  1,  1) (  3,  1,  1) (  3,  2,  1)
    -0.2104       -0.5733        -1.258        -1.026        0.7900    
  (  3,  1, 10) (  3,  1,  1) (  3,  1, 10) (  3,  4,  1) (  3, 10,  1)
     0.8725E-01    0.1640E-01   -0.4074E-02   -0.3096E-02   -0.1330E-02
  (  2,  9,  3) (  2,  4,  5) (  3,  2,  7) (  3,  5,  6) (  3,  2,  1)
    -0.1377E-02   -0.6065E-03   -0.6938E-03    0.1343E-02    0.5669E-03
  (  3,  5,  6) (  3,  6,  6) (  3, 10,  1) (  3,  8,  7) (  3,  1,  5)
     0.1274E-02    0.1107E-02    0.1306E-02    0.1597E-02    0.1320E-02
  (  3, 10, 10) (  3,  2,  9) (  3,  9, 10) (  3,  1,  1) (  3,  1,  5)
     0.8886E-03    0.8682E-03    0.6121E-03    0.4342E-03    0.3278E-03
  (  3,  1,  5) (  3,  2,  9) (  3,  1,  5) (  3,  1,  5) (  3,  1,  5)
     0.2147E-03    0.2130E-03    0.1472E-03    0.1074E-03    0.7923E-04
  (  3,  1,  5) (  3,  2,  9) (  3,  1,  5) (  3,  1,  5) (  3,  1,  5)
     0.5366E-04    0.5133E-04    0.3788E-04    0.2619E-04    0.1988E-04
  (  3,  1,  5) (  3,  2,  9) (  3,  1,  5) (  3,  2,  9) (  3,  1,  5)
     0.1297E-04    0.1122E-04    0.7017E-05
  (  3,  1,  5) (  3,  1,  3) (  3,  1,  5)


 OUTPUT CONTROL FOR STRESS PERIOD   30   TIME STEP   1
    SAVE HEAD FOR ALL LAYERS

 HEAD WILL BE SAVED ON UNIT   21 AT END OF TIME STEP   1, STRESS PERIOD   30
 
 SOLVING FOR HEAD 
    41 ITERATIONS FOR TIME STEP   2 IN STRESS PERIOD   30

 MAXIMUM HEAD CHANGE FOR EACH ITERATION:

    HEAD CHANGE   HEAD CHANGE   HEAD CHANGE   HEAD CHANGE   HEAD CHANGE
  LAYER,ROW,COL LAYER,ROW,COL LAYER,ROW,COL LAYER,ROW,COL LAYER,ROW,COL
 ----------------------------------------------------------------------
     0.9966         2.361         2.102        -1.005        -2.561    
  (  3, 10,  4) (  3,  1,  9) (  3,  3,  6) (  3, 10,  5) (  3,  1,  1)
     0.2898       -0.4378        -1.134        0.1802       -0.4056E-01
  (  2,  3,  6) (  3,  1,  1) (  3,  1, 10) (  3, 10,  1) (  2,  1,  1)
    -0.4721E-01   -0.1198E-01   -0.1827E-02   -0.1293E-02   -0.1414E-02
  (  2,  7,  1) (  2,  1,  2) (  3,  4,  7) (  3,  1,  1) (  3,  1,  6)
     0.1035E-02    0.5324E-03    0.2160E-02    0.8856E-03    0.2458E-02
  (  3,  7,  1) (  3,  6,  2) (  3,  6,  1) (  3,  1,  2) (  3,  4,  1)
     0.1128E-02    0.2376E-02    0.1946E-02    0.1379E-02    0.1031E-02
  (  3,  1,  2) (  3,  6,  3) (  3,  1,  1) (  3,  1,  2) (  3,  1,  2)
     0.6382E-03    0.6745E-03    0.4577E-03    0.3261E-03    0.2371E-03
  (  3,  1,  2) (  3,  1,  2) (  3,  1,  2) (  3,  1,  2) (  3,  1,  2)
     0.1498E-03    0.1533E-03    0.1112E-03    0.7396E-04    0.5641E-04
  (  3,  1,  2) (  3,  1,  2) (  3,  1,  2) (  3,  1,  2) (  3,  1,  2)
     0.3501E-04    0.3647E-04    0.2487E-04    0.1824E-04    0.1361E-04
  (  3,  1,  2) (  3,  1,  2) (  3,  3,  9) (  3,  1,  2) (  3,  1,  2)
     0.7924E-05
  (  3,  1,  2)


 OUTPUT CONTROL FOR STRESS PERIOD   30   TIME STEP   2
    SAVE HEAD FOR ALL LAYERS

 HEAD WILL BE SAVED ON UNIT   21 AT END OF TIME STEP   2, STRESS PERIOD   30
 
 SOLVING FOR HEAD 
    39 ITERATIONS FOR TIME STEP   3 IN STRESS PERIOD   30

 MAXIMUM HEAD CHANGE FOR EACH ITERATION:

    HEAD CHANGE   HEAD CHANGE   HEAD CHANGE   HEAD CHANGE   HEAD CHANGE
  LAYER,ROW,COL LAYER,ROW,COL LAYER,ROW,COL LAYER,ROW,COL LAYER,ROW,COL
 ----------------------------------------------------------------------
      1.115         2.030         1.790       -0.8003        -2.647    
  (  3,  1,  1) (  3,  1, 10) (  3,  4,  6) (  3, 10, 10) (  3,  1,  1)
     0.5008       -0.3188       -0.8892        0.4566       -0.3262E-01
  (  2,  3,  6) (  3,  1,  1) (  3,  1, 10) (  3,  1, 10) (  2,  1,  1)
    -0.4089E-01   -0.1360E-01   -0.3747E-02   -0.1696E-02   -0.1070E-02
  (  2,  6,  1) (  2,  1,  2) (  3,  4,  6) (  3,  5,  6) (  3,  2,  5)
     0.1453E-02    0.1371E-02    0.1630E-02    0.2279E-02    0.2601E-02
  (  3,  1,  3) (  3, 10, 10) (  3,  1,  5) (  3, 10, 10) (  3,  1,  1)
     0.1614E-02    0.1864E-02    0.1279E-02    0.8485E-03    0.6250E-03
  (  3,  1,  8) (  3,  1,  8) (  3,  1,  8) (  3,  1,  8) (  3,  1,  8)
     0.3635E-03    0.3941E-03    0.2866E-03    0.1905E-03    0.1335E-03
  (  3,  1,  8) (  3,  2,  8) (  3,  1,  8) (  3,  1,  8) (  3,  1,  8)
     0.8211E-04    0.8947E-04    0.6355E-04    0.4119E-04    0.3144E-04
  (  3,  1,  8) (  3,  1,  8) (  3,  7,  5) (  3,  1,  8) (  3,  1,  8)
     0.1809E-04    0.2030E-04    0.1388E-04    0.9857E-05
  (  3,  1,  8) (  3,  1,  8) (  3,  1,  8) (  3,  1,  8)


 OUTPUT CONTROL FOR STRESS PERIOD   30   TIME STEP   3
    SAVE HEAD FOR ALL LAYERS

 HEAD WILL BE SAVED ON UNIT   21 AT END OF TIME STEP   3, STRESS PERIOD   30
 
 SOLVING FOR HEAD 
    35 ITERATIONS FOR TIME STEP   4 IN STRESS PERIOD   30

 MAXIMUM HEAD CHANGE FOR EACH ITERATION:

    HEAD CHANGE   HEAD CHANGE   HEAD CHANGE   HEAD CHANGE   HEAD CHANGE
  LAYER,ROW,COL LAYER,ROW,COL LAYER,ROW,COL LAYER,ROW,COL LAYER,ROW,COL
 ----------------------------------------------------------------------
    -0.6937         1.491         1.509       -0.7163        -2.580    
  (  2,  3,  6) (  3,  1, 10) (  3,  1,  1) (  3, 10, 10) (  3,  1,  1)
     0.5183        0.5995E-01   -0.1647E-01   -0.1312E-01   -0.9812E-02
  (  2,  4,  7) (  2, 10,  2) (  3,  2,  1) (  3,  2,  7) (  3,  2,  7)
    -0.3562E-02   -0.5495E-02   -0.2696E-02   -0.1516E-02    0.1670E-02
  (  3,  1,  1) (  3,  2,  8) (  3,  7,  3) (  3,  1, 10) (  3,  1,  2)
     0.1530E-02    0.2729E-02    0.2381E-02    0.1519E-02    0.1041E-02
  (  3, 10,  1) (  3,  1,  1) (  3,  2,  7) (  3,  2,  7) (  3,  2,  7)
     0.5510E-03    0.7360E-03    0.5190E-03    0.3063E-03    0.2149E-03
  (  3,  1,  1) (  3,  2,  7) (  3,  2,  7) (  3,  2,  7) (  3,  2,  7)
     0.1300E-03    0.1474E-03    0.1059E-03    0.6279E-04    0.4363E-04
  (  2,  6,  1) (  3,  2,  7) (  3,  2,  7) (  3,  2,  7) (  3,  2,  7)
     0.2531E-04    0.3101E-04    0.2180E-04    0.1258E-04    0.9609E-05
  (  2,  7,  1) (  3,  2,  7) (  3,  2,  7) (  3,  1, 10) (  3,  2,  7)


 OUTPUT CONTROL FOR STRESS PERIOD   30   TIME STEP   4
    SAVE HEAD FOR ALL LAYERS

 HEAD WILL BE SAVED ON UNIT   21 AT END OF TIME STEP   4, STRESS PERIOD   30
 
 SOLVING FOR HEAD 
    31 ITERATIONS FOR TIME STEP   5 IN STRESS PERIOD   30

 MAXIMUM HEAD CHANGE FOR EACH ITERATION:

    HEAD CHANGE   HEAD CHANGE   HEAD CHANGE   HEAD CHANGE   HEAD CHANGE
  LAYER,ROW,COL LAYER,ROW,COL LAYER,ROW,COL LAYER,ROW,COL LAYER,ROW,COL
 ----------------------------------------------------------------------
    -0.8155        0.9385        0.9615       -0.7991        -2.353    
  (  2,  3,  6) (  3,  1, 10) (  3,  2,  1) (  3, 10, 10) (  3,  1,  1)
     0.6580        0.3709        0.1234        0.1299       -0.6244E-01
  (  3,  1, 10) (  3,  9,  3) (  2,  1,  9) (  2, 10,  3) (  2, 10, 10)
     0.9398E-01    0.1565E-01   -0.5551E-02   -0.2837E-02   -0.2229E-02
  (  2,  7,  1) (  2,  1,  2) (  3,  5,  3) (  3,  6,  2) (  2, 10,  3)
    -0.2107E-02   -0.1247E-02   -0.9770E-03   -0.5308E-03   -0.3404E-03
  (  2,  6,  1) (  3,  5,  3) (  3,  6,  3) (  3,  5,  3) (  3,  5,  4)
    -0.1373E-03   -0.2338E-03   -0.1854E-03   -0.9913E-04   -0.6616E-04
  (  3,  4,  1) (  3,  8,  2) (  3,  5,  3) (  3,  5,  4) (  3,  5,  3)
    -0.2614E-04   -0.4456E-04   -0.3470E-04   -0.1942E-04   -0.1296E-04
  (  3,  5,  4) (  3,  5,  3) (  3,  5,  4) (  3,  5,  3) (  3,  5,  4)
    -0.5510E-05
  (  3,  8,  3)


 OUTPUT CONTROL FOR STRESS PERIOD   30   TIME STEP   5
    SAVE HEAD FOR ALL LAYERS

 HEAD WILL BE SAVED ON UNIT   21 AT END OF TIME STEP   5, STRESS PERIOD   30
 
 SOLVING FOR HEAD 
    32 ITERATIONS FOR TIME STEP   6 IN STRESS PERIOD   30

 MAXIMUM HEAD CHANGE FOR EACH ITERATION:

    HEAD CHANGE   HEAD CHANGE   HEAD CHANGE   HEAD CHANGE   HEAD CHANGE
  LAYER,ROW,COL LAYER,ROW,COL LAYER,ROW,COL LAYER,ROW,COL LAYER,ROW,COL
 ----------------------------------------------------------------------
    -0.8946        0.8367        0.3885       -0.9230        -1.076    
  (  2,  3,  6) (  2,  3,  6) (  3,  7,  7) (  3, 10,  3) (  3,  1,  1)
     0.5166        0.3177        0.9243E-01    0.3768E-01   -0.3276E-01
  (  3,  1, 10) (  3,  2,  2) (  2,  1,  9) (  2, 10,  1) (  2, 10, 10)
     0.3037E-01   -0.1172E-01   -0.9565E-02   -0.4817E-02   -0.2865E-02
  (  2,  7,  1) (  3,  2,  7) (  3,  3,  5) (  3,  2,  7) (  3,  2,  7)
    -0.2309E-02   -0.1909E-02   -0.1645E-02   -0.7971E-03   -0.5025E-03
  (  2,  7,  1) (  3,  2,  6) (  3,  3,  5) (  3,  3,  6) (  3,  3,  6)
    -0.3627E-03   -0.3356E-03   -0.2759E-03   -0.1409E-03   -0.8471E-04
  (  2,  9,  1) (  3,  2,  7) (  3,  3,  5) (  3,  3,  6) (  3,  3,  6)
    -0.3928E-04   -0.5626E-04   -0.4896E-04   -0.2438E-04   -0.1450E-04
  (  2,  8,  1) (  3,  3,  7) (  3,  3,  6) (  3,  3,  7) (  3,  3,  7)
    -0.1061E-04   -0.3928E-05
  (  2,  9,  1) (  3,  2,  7)


 OUTPUT CONTROL FOR STRESS PERIOD   30   TIME STEP   6
    PRINT BUDGET
    PRINT HEAD FOR ALL LAYERS
    SAVE HEAD FOR ALL LAYERS
    SAVE DRAWDOWN FOR ALL LAYERS
1
              HEAD IN LAYER   1 AT END OF TIME STEP   6 IN STRESS PERIOD   30
  ---------------------------------------------------------------------------

           1       2       3       4       5       6       7       8       9      10
 ...................................................................................
   1    19.74   19.38   18.71   18.29   18.08   18.08   18.28   18.71   19.38   19.73
   2    18.73   18.22   17.79   17.49   17.34   17.34   17.49   17.79   18.21   18.72
   3    17.30   16.80   16.43   16.18   16.05   16.05   16.17   16.42   16.79   17.29
   4    15.37   14.93   14.63   14.44   14.34   14.34   14.43   14.62   14.92   15.36
   5    12.62   12.53   12.43   12.34   12.30   12.30   12.34   12.42   12.52   12.61
   6    10.23   10.21   10.17   10.13   10.11   10.11   10.13   10.16   10.20   10.23
   7     7.96    7.94    7.91    7.87    7.85    7.85    7.87    7.90    7.94    7.96
   8     5.78    5.73    5.65    5.57    5.53    5.52    5.57    5.65    5.73    5.77
   9     3.79    3.65    3.41    3.13    3.01    3.01    3.13    3.40    3.65    3.79
  10     2.38    2.03    1.28    0.00    0.00    0.00    0.00    1.28    2.03    2.38
1
              HEAD IN LAYER   2 AT END OF TIME STEP   6 IN STRESS PERIOD   30
  ---------------------------------------------------------------------------

           1       2       3       4       5       6       7       8       9      10
 ...................................................................................
   1    -5.52   -5.51   -5.52   -5.53   -5.54   -5.56   -5.58   -5.60   -5.62   -5.64
   2    -5.58   -4.78   -5.09   -5.58   -6.07   -6.44   -6.41   -6.09   -5.72   -5.78
   3    -5.68   -5.28   -5.79   -6.56   -7.14   -8.05   -7.77   -7.09   -6.62   -5.92
   4    -5.81   -5.53   -5.94   -6.52   -7.02   -7.32   -7.25   -7.02   -6.63   -6.06
   5    -5.95   -5.70   -5.87   -6.15   -6.43   -6.65   -6.68   -6.55   -6.38   -6.19
   6    -6.11   -5.83   -5.88   -6.00   -6.12   -6.21   -6.24   -6.23   -6.22   -6.31
   7    -6.28   -6.06   -6.08   -6.14   -6.20   -6.24   -6.26   -6.27   -6.28   -6.44
   8    -6.45   -6.45   -6.50   -6.56   -6.61   -6.63   -6.63   -6.61   -6.58   -6.58
   9    -6.63   -6.96   -7.01   -7.03   -7.05   -7.05   -7.04   -7.02   -7.00   -6.71
  10    -6.79   -6.83   -6.86   -6.89   -6.90   -6.91   -6.90   -6.89   -6.87   -6.84
1
              HEAD IN LAYER   3 AT END OF TIME STEP   6 IN STRESS PERIOD   30
  ---------------------------------------------------------------------------

           1       2       3       4       5       6       7       8       9      10
 ...................................................................................
   1   -27.17  -27.34  -27.66  -28.08  -28.52  -28.87  -29.04  -29.04  -28.96  -28.91
   2   -27.17  -27.43  -27.95  -28.68  -29.56  -30.34  -30.42  -30.02  -29.61  -29.38
   3   -26.81  -27.20  -28.04  -29.44  -31.68  -35.29  -34.44  -31.74  -30.28  -29.62
   4   -25.56  -25.88  -26.53  -27.56  -28.99  -30.86  -30.60  -29.26  -28.38  -27.95
   5   -23.69  -23.87  -24.21  -24.68  -25.22  -25.67  -25.76  -25.58  -25.37  -25.24
   6   -21.72  -21.81  -21.96  -22.17  -22.39  -22.56  -22.65  -22.66  -22.64  -22.62
   7   -20.00  -20.03  -20.11  -20.20  -20.30  -20.38  -20.44  -20.47  -20.49  -20.49
   8   -18.65  -18.67  -18.70  -18.75  -18.80  -18.84  -18.88  -18.91  -18.92  -18.93
   9   -17.75  -17.76  -17.77  -17.80  -17.83  -17.85  -17.88  -17.89  -17.91  -17.91
  10   -17.29  -17.30  -17.31  -17.33  -17.35  -17.36  -17.38  -17.39  -17.40  -17.41

 HEAD WILL BE SAVED ON UNIT   21 AT END OF TIME STEP   6, STRESS PERIOD   30

 DRAWDOWN WILL BE SAVED ON UNIT   22 AT END OF TIME STEP   6, STRESS PERIOD   30
1
  VOLUMETRIC BUDGET FOR ENTIRE MODEL AT END OF TIME STEP  6 IN STRESS PERIOD  30
  ------------------------------------------------------------------------------

     CUMULATIVE VOLUMES      L**3       RATES FOR THIS TIME STEP      L**3/T
     ------------------                 ------------------------

           IN:                                      IN:
           ---                                      ---
             STORAGE =    43910392.0000               STORAGE =        3013.0923
       CONSTANT HEAD =      812563.8750         CONSTANT HEAD =         165.6440
               WELLS =   317840832.0000                 WELLS =       30000.0000
    INST. IB STORAGE =    63553336.0000      INST. IB STORAGE =        4943.6001
    DELAY IB STORAGE =   164245792.0000      DELAY IB STORAGE =       14665.0938

            TOTAL IN =   590362944.0000              TOTAL IN =       52787.4297

          OUT:                                     OUT:
          ----                                     ----
             STORAGE =           0.0000               STORAGE =           0.0000
       CONSTANT HEAD =   272552352.0000         CONSTANT HEAD =       22787.4609
               WELLS =   317810848.0000                 WELLS =       30000.0000
    INST. IB STORAGE =           0.0000      INST. IB STORAGE =           0.0000
    DELAY IB STORAGE =           0.0000      DELAY IB STORAGE =           0.0000

           TOTAL OUT =   590363200.0000             TOTAL OUT =       52787.4609

            IN - OUT =        -256.0000              IN - OUT =      -3.1250E-02

 PERCENT DISCREPANCY =           0.00     PERCENT DISCREPANCY =           0.00






          TIME SUMMARY AT END OF TIME STEP   6 IN STRESS PERIOD   30
                    SECONDS     MINUTES      HOURS       DAYS        YEARS
                    -----------------------------------------------------------
   TIME STEP LENGTH 9.18681E+06 1.53113E+05  2551.9      106.33     0.29111    
 STRESS PERIOD TIME 3.15619E+07 5.26032E+05  8767.2      365.30      1.0001    
         TOTAL TIME 9.15382E+08 1.52564E+07 2.54273E+05  10595.      29.007    
1

                               VOLUMETRIC BUDGET FOR SYSTEMS OF DELAY INTERBEDS
                                          AT END OF TIME STEP  6 IN STRESS PERIOD 30

          |   C U M U L A T I V E   V O L U M E S   L**3           | R A T E S   F O R  T H I S  T I M E  S T E P   L**3/T  |
   SYSTEM |    CHANGE IN     BOUNDARY                    PERCENT   |    CHANGE IN     BOUNDARY                    PERCENT   |
   NUMBER |     STORAGE        FLOW           SUM      DISCREPANCY |     STORAGE        FLOW           SUM      DISCREPANCY |
  --------|--------------------------------------------------------|--------------------------------------------------------|
      1    0.11244E+06   -0.11244E+06   -0.78125E-02   -0.69479E-05     7.9592        -7.9592       -0.33379E-05   -0.41937E-04
      2    0.16413E+09   -0.16413E+09     0.0000         0.0000         14657.        -14657.       -0.29297E-02   -0.19988E-04
  --------|--------------------------------------------------------|--------------------------------------------------------|
 TOTALS:    0.16425E+09   -0.16425E+09     0.0000         0.0000         14665.        -14665.       -0.29297E-02   -0.19977E-04
1
                            STRESS PERIOD NO.   31, LENGTH =   365.3000    
                            -----------------------------------------------

                              NUMBER OF TIME STEPS =     6

                               MULTIPLIER FOR DELT =     1.300

                            INITIAL TIME STEP SIZE =   28.63744    

 REUSING NON-PARAMETER WELLS FROM LAST STRESS PERIOD

     14 WELLS
 
 SOLVING FOR HEAD 

    43 ITERATIONS FOR TIME STEP   1 IN STRESS PERIOD   31

 MAXIMUM HEAD CHANGE FOR EACH ITERATION:

    HEAD CHANGE   HEAD CHANGE   HEAD CHANGE   HEAD CHANGE   HEAD CHANGE
  LAYER,ROW,COL LAYER,ROW,COL LAYER,ROW,COL LAYER,ROW,COL LAYER,ROW,COL
 ----------------------------------------------------------------------
      1.355         3.248         2.373        -1.312        -2.508    
  (  3, 10,  6) (  3,  1, 10) (  3,  4,  6) (  3, 10,  3) (  3,  1,  1)
    -0.2123       -0.5432        -1.231        -1.012        0.7808    
  (  3,  1, 10) (  3,  1,  1) (  3,  1, 10) (  3,  4,  1) (  3, 10,  1)
    -0.8326E-01    0.4110E-01    0.3259E-01   -0.7546E-02    0.7891E-02
  (  2,  8,  1) (  2, 10,  7) (  2, 10,  1) (  2, 10,  1) (  2, 10,  1)
     0.1243E-01    0.3963E-02   -0.6828E-03    0.1309E-02    0.6670E-03
  (  2,  6,  1) (  2, 10,  2) (  3,  3,  5) (  3,  7, 10) (  3,  1,  2)
     0.1246E-02    0.1095E-02    0.1236E-02    0.1496E-02    0.1366E-02
  (  3, 10, 10) (  3,  1,  2) (  3, 10,  6) (  3,  1,  5) (  3,  1,  2)
     0.9195E-03    0.8817E-03    0.6214E-03    0.4498E-03    0.3394E-03
  (  3,  1,  2) (  3,  1,  2) (  3,  1,  2) (  3,  1,  3) (  3,  1,  2)
     0.2246E-03    0.2138E-03    0.1536E-03    0.1116E-03    0.8341E-04
  (  3,  1,  3) (  3,  1,  2) (  3,  1,  3) (  3,  1,  2) (  3,  1,  3)
     0.5540E-04    0.5256E-04    0.3763E-04    0.2611E-04    0.2172E-04
  (  3,  1,  2) (  3,  1,  3) (  3,  1,  2) (  3,  1,  3) (  3,  1,  2)
     0.1299E-04    0.1137E-04    0.6094E-05
  (  3,  1,  3) (  3,  1,  2) (  3,  1,  3)


 OUTPUT CONTROL FOR STRESS PERIOD   31   TIME STEP   1
    SAVE HEAD FOR ALL LAYERS

 HEAD WILL BE SAVED ON UNIT   21 AT END OF TIME STEP   1, STRESS PERIOD   31
 
 SOLVING FOR HEAD 
    41 ITERATIONS FOR TIME STEP   2 IN STRESS PERIOD   31

 MAXIMUM HEAD CHANGE FOR EACH ITERATION:

    HEAD CHANGE   HEAD CHANGE   HEAD CHANGE   HEAD CHANGE   HEAD CHANGE
  LAYER,ROW,COL LAYER,ROW,COL LAYER,ROW,COL LAYER,ROW,COL LAYER,ROW,COL
 ----------------------------------------------------------------------
      1.022         2.554         2.131        -1.036        -2.547    
  (  3,  1,  1) (  3,  1, 10) (  3, 10, 10) (  3, 10, 10) (  3,  1,  1)
     0.3257       -0.4529        -1.113        0.1809        0.1244    
  (  2,  3,  6) (  3,  1,  1) (  3,  1, 10) (  3, 10,  1) (  2,  4,  5)
    -0.4887E-01   -0.1006E-01   -0.1962E-02   -0.1281E-02   -0.1353E-02
  (  2,  7,  1) (  2,  1,  2) (  3,  6,  3) (  3,  1,  1) (  3,  1,  4)
     0.1331E-02    0.5450E-03    0.1984E-02    0.9281E-03    0.2309E-02
  (  3, 10,  1) (  3, 10,  8) (  3,  4,  1) (  3, 10,  1) (  3,  3,  1)
     0.1136E-02    0.2348E-02    0.1903E-02    0.1378E-02    0.1004E-02
  (  3,  1,  6) (  3,  8, 10) (  3,  2,  4) (  3,  1,  6) (  3,  1,  6)
     0.6316E-03    0.6714E-03    0.4671E-03    0.3162E-03    0.2357E-03
  (  3,  1,  6) (  3,  2,  7) (  3,  1,  6) (  3,  1,  6) (  3,  1,  6)
     0.1495E-03    0.1563E-03    0.1066E-03    0.7467E-04    0.5445E-04
  (  2,  9,  1) (  3,  2,  7) (  3,  2,  7) (  3,  1,  6) (  3,  1,  6)
     0.3414E-04    0.3570E-04    0.2564E-04    0.1699E-04    0.1301E-04
  (  3,  1,  6) (  3,  2,  7) (  3,  1,  6) (  3,  1,  6) (  3,  1,  6)
     0.8543E-05
  (  3,  1,  6)


 OUTPUT CONTROL FOR STRESS PERIOD   31   TIME STEP   2
    SAVE HEAD FOR ALL LAYERS

 HEAD WILL BE SAVED ON UNIT   21 AT END OF TIME STEP   2, STRESS PERIOD   31
 
 SOLVING FOR HEAD 
    39 ITERATIONS FOR TIME STEP   3 IN STRESS PERIOD   31

 MAXIMUM HEAD CHANGE FOR EACH ITERATION:

    HEAD CHANGE   HEAD CHANGE   HEAD CHANGE   HEAD CHANGE   HEAD CHANGE
  LAYER,ROW,COL LAYER,ROW,COL LAYER,ROW,COL LAYER,ROW,COL LAYER,ROW,COL
 ----------------------------------------------------------------------
     0.9247         1.971         1.870       -0.7648        -2.592    
  (  3, 10, 10) (  3,  1, 10) (  3,  2,  1) (  3, 10, 10) (  3,  1,  1)
     0.5433       -0.3276       -0.8860        0.4451       -0.3187E-01
  (  2,  3,  6) (  3,  1,  1) (  3,  1, 10) (  3, 10,  1) (  2,  1,  1)
    -0.4117E-01   -0.1137E-01   -0.3874E-02   -0.1691E-02   -0.1225E-02
  (  2,  6,  1) (  2,  1,  2) (  3,  3,  3) (  3,  3,  9) (  3,  2,  3)
     0.1415E-02    0.1464E-02    0.1625E-02    0.2347E-02    0.2596E-02
  (  3,  1,  1) (  3, 10,  5) (  3,  1,  6) (  3, 10,  1) (  3,  1,  6)
     0.1496E-02    0.1787E-02    0.1251E-02    0.7835E-03    0.5703E-03
  (  3,  1,  1) (  3,  2,  4) (  3,  3,  9) (  3,  1,  6) (  3,  3,  9)
     0.3434E-03    0.3871E-03    0.2678E-03    0.1737E-03    0.1216E-03
  (  2,  9,  1) (  3,  3,  9) (  3,  3,  9) (  3,  3,  9) (  3,  4, 10)
     0.9335E-04    0.8399E-04    0.5992E-04    0.3746E-04    0.2754E-04
  (  2,  9,  1) (  3,  3,  9) (  3,  3,  9) (  3,  4, 10) (  3,  3,  9)
     0.1571E-04    0.1825E-04    0.1290E-04    0.7942E-05
  (  2,  9,  1) (  3,  4, 10) (  3,  3,  9) (  3,  3,  1)


 OUTPUT CONTROL FOR STRESS PERIOD   31   TIME STEP   3
    SAVE HEAD FOR ALL LAYERS

 HEAD WILL BE SAVED ON UNIT   21 AT END OF TIME STEP   3, STRESS PERIOD   31
 
 SOLVING FOR HEAD 
    35 ITERATIONS FOR TIME STEP   4 IN STRESS PERIOD   31

 MAXIMUM HEAD CHANGE FOR EACH ITERATION:

    HEAD CHANGE   HEAD CHANGE   HEAD CHANGE   HEAD CHANGE   HEAD CHANGE
  LAYER,ROW,COL LAYER,ROW,COL LAYER,ROW,COL LAYER,ROW,COL LAYER,ROW,COL
 ----------------------------------------------------------------------
     0.8051         1.177         1.481       -0.7690        -2.574    
  (  3,  1, 10) (  3,  2,  9) (  3, 10, 10) (  3, 10, 10) (  3,  1,  1)
     0.8527        0.3437E-01   -0.1497E-01   -0.1233E-01   -0.9216E-02
  (  2,  3,  6) (  2, 10,  2) (  3,  2,  1) (  3,  1,  7) (  3,  4,  2)
    -0.3834E-02   -0.5510E-02   -0.2757E-02   -0.1374E-02    0.1668E-02
  (  3,  1, 10) (  3,  2,  7) (  3,  7,  3) (  3,  2,  6) (  3,  1, 10)
     0.1156E-02    0.2803E-02    0.2388E-02    0.1501E-02    0.1065E-02
  (  3, 10,  1) (  3,  1,  1) (  3,  1, 10) (  3,  1,  1) (  3,  1, 10)
     0.5862E-03    0.7268E-03    0.5147E-03    0.3125E-03    0.2163E-03
  (  3,  1,  1) (  3,  1, 10) (  3,  1,  1) (  3,  1, 10) (  3,  1, 10)
     0.1255E-03    0.1470E-03    0.1038E-03    0.6299E-04    0.4509E-04
  (  3,  1, 10) (  3,  1,  1) (  3,  1, 10) (  3,  1,  1) (  3,  1, 10)
     0.2581E-04    0.3001E-04    0.2170E-04    0.1277E-04    0.8810E-05
  (  3,  1,  1) (  3,  1, 10) (  3,  1,  1) (  3,  1, 10) (  3,  1, 10)


 OUTPUT CONTROL FOR STRESS PERIOD   31   TIME STEP   4
    SAVE HEAD FOR ALL LAYERS

 HEAD WILL BE SAVED ON UNIT   21 AT END OF TIME STEP   4, STRESS PERIOD   31
 
 SOLVING FOR HEAD 
    31 ITERATIONS FOR TIME STEP   5 IN STRESS PERIOD   31

 MAXIMUM HEAD CHANGE FOR EACH ITERATION:

    HEAD CHANGE   HEAD CHANGE   HEAD CHANGE   HEAD CHANGE   HEAD CHANGE
  LAYER,ROW,COL LAYER,ROW,COL LAYER,ROW,COL LAYER,ROW,COL LAYER,ROW,COL
 ----------------------------------------------------------------------
    -0.5328        0.9930        0.8994       -0.8381        -2.280    
  (  2,  4,  6) (  3,  1, 10) (  3,  4,  5) (  3, 10, 10) (  3,  1,  1)
     0.6473        0.3677        0.1891        0.4494E-01    0.2389E-01
  (  3,  1, 10) (  3,  9,  3) (  2,  8,  5) (  2,  8,  8) (  2,  1,  1)
     0.6610E-01   -0.8336E-02   -0.5594E-02   -0.2936E-02   -0.1949E-02
  (  2,  6,  1) (  3,  2,  3) (  3,  7,  2) (  3,  7,  1) (  3,  7,  1)
    -0.7629E-03   -0.1308E-02   -0.1012E-02   -0.5611E-03   -0.3558E-03
  (  3,  7,  1) (  3,  7,  2) (  3,  7,  2) (  3,  7,  1) (  3,  7,  1)
    -0.1502E-03   -0.2465E-03   -0.1949E-03   -0.1025E-03   -0.7077E-04
  (  3,  7,  1) (  3,  7,  2) (  3,  7,  2) (  3,  7,  1) (  3,  7,  2)
    -0.2806E-04   -0.4696E-04   -0.3605E-04   -0.2101E-04   -0.1329E-04
  (  3,  7,  1) (  3,  7,  2) (  3,  7,  2) (  3,  7,  2) (  3,  7,  2)
    -0.5811E-05
  (  3,  7,  1)


 OUTPUT CONTROL FOR STRESS PERIOD   31   TIME STEP   5
    SAVE HEAD FOR ALL LAYERS

 HEAD WILL BE SAVED ON UNIT   21 AT END OF TIME STEP   5, STRESS PERIOD   31
 
 SOLVING FOR HEAD 
    31 ITERATIONS FOR TIME STEP   6 IN STRESS PERIOD   31

 MAXIMUM HEAD CHANGE FOR EACH ITERATION:

    HEAD CHANGE   HEAD CHANGE   HEAD CHANGE   HEAD CHANGE   HEAD CHANGE
  LAYER,ROW,COL LAYER,ROW,COL LAYER,ROW,COL LAYER,ROW,COL LAYER,ROW,COL
 ----------------------------------------------------------------------
    -0.9020        0.8227        0.3988       -0.9110        -1.030    
  (  2,  3,  6) (  2,  3,  6) (  3,  4,  4) (  3, 10,  3) (  3,  1,  1)
     0.4930        0.3029        0.1059        0.4190E-01   -0.1668E-01
  (  3,  1, 10) (  3,  2,  2) (  2,  3,  9) (  2,  3,  4) (  3,  1,  5)
     0.2617E-01   -0.1105E-01   -0.9069E-02   -0.4550E-02   -0.2693E-02
  (  2,  7,  1) (  3,  2,  6) (  3,  3,  4) (  3,  2,  6) (  3,  2,  6)
    -0.1139E-02   -0.1801E-02   -0.1560E-02   -0.7535E-03   -0.4775E-03
  (  3,  1, 10) (  3,  3,  5) (  3,  3,  5) (  3,  3,  5) (  3,  3,  5)
    -0.2095E-03   -0.3135E-03   -0.2615E-03   -0.1348E-03   -0.7907E-04
  (  2,  9,  1) (  3,  2,  7) (  3,  3,  5) (  3,  3,  5) (  3,  3,  6)
     0.3909E-04   -0.5269E-04   -0.4667E-04   -0.2298E-04   -0.1517E-04
  (  2,  3,  1) (  3,  3,  6) (  3,  3,  5) (  3,  3,  7) (  3,  3,  6)
    -0.5817E-05
  (  2,  9,  1)


 OUTPUT CONTROL FOR STRESS PERIOD   31   TIME STEP   6
    PRINT BUDGET
    PRINT HEAD FOR ALL LAYERS
    SAVE HEAD FOR ALL LAYERS
    SAVE DRAWDOWN FOR ALL LAYERS
1
              HEAD IN LAYER   1 AT END OF TIME STEP   6 IN STRESS PERIOD   31
  ---------------------------------------------------------------------------

           1       2       3       4       5       6       7       8       9      10
 ...................................................................................
   1    19.66   19.31   18.64   18.21   18.00   18.00   18.21   18.63   19.30   19.66
   2    18.66   18.15   17.72   17.42   17.26   17.26   17.41   17.71   18.14   18.65
   3    17.23   16.73   16.36   16.11   15.98   15.98   16.10   16.35   16.72   17.22
   4    15.30   14.86   14.56   14.37   14.27   14.27   14.36   14.55   14.85   15.29
   5    12.56   12.47   12.36   12.28   12.24   12.23   12.28   12.36   12.46   12.55
   6    10.17   10.15   10.11   10.07   10.05   10.05   10.07   10.11   10.14   10.17
   7     7.91    7.89    7.86    7.83    7.81    7.81    7.82    7.86    7.89    7.91
   8     5.74    5.69    5.62    5.54    5.49    5.49    5.53    5.61    5.69    5.74
   9     3.77    3.63    3.38    3.11    2.99    2.99    3.10    3.38    3.63    3.76
  10     2.36    2.02    1.27    0.00    0.00    0.00    0.00    1.27    2.01    2.36
1
              HEAD IN LAYER   2 AT END OF TIME STEP   6 IN STRESS PERIOD   31
  ---------------------------------------------------------------------------

           1       2       3       4       5       6       7       8       9      10
 ...................................................................................
   1    -5.77   -5.77   -5.77   -5.79   -5.80   -5.82   -5.84   -5.85   -5.87   -5.90
   2    -5.83   -5.06   -5.38   -5.87   -6.36   -6.73   -6.70   -6.37   -6.01   -6.03
   3    -5.93   -5.56   -6.07   -6.84   -7.26   -8.26   -7.96   -7.19   -6.89   -6.17
   4    -6.05   -5.80   -6.22   -6.79   -7.09   -7.46   -7.38   -7.08   -6.90   -6.29
   5    -6.18   -5.97   -6.15   -6.42   -6.70   -6.92   -6.95   -6.82   -6.65   -6.41
   6    -6.33   -6.09   -6.15   -6.27   -6.38   -6.47   -6.51   -6.50   -6.48   -6.53
   7    -6.49   -6.31   -6.34   -6.40   -6.46   -6.50   -6.52   -6.52   -6.53   -6.65
   8    -6.65   -6.69   -6.75   -6.81   -6.86   -6.88   -6.87   -6.85   -6.82   -6.77
   9    -6.81   -7.02   -7.05   -7.09   -7.11   -7.12   -7.10   -7.07   -7.03   -6.89
  10    -6.96   -6.99   -7.02   -7.04   -7.06   -7.06   -7.05   -7.04   -7.02   -7.00
1
              HEAD IN LAYER   3 AT END OF TIME STEP   6 IN STRESS PERIOD   31
  ---------------------------------------------------------------------------

           1       2       3       4       5       6       7       8       9      10
 ...................................................................................
   1   -27.68  -27.85  -28.17  -28.59  -29.03  -29.38  -29.55  -29.55  -29.47  -29.42
   2   -27.68  -27.94  -28.45  -29.19  -30.06  -30.84  -30.93  -30.53  -30.12  -29.89
   3   -27.32  -27.71  -28.54  -29.94  -32.18  -35.80  -34.95  -32.25  -30.78  -30.12
   4   -26.06  -26.38  -27.03  -28.05  -29.48  -31.36  -31.10  -29.75  -28.88  -28.45
   5   -24.18  -24.35  -24.69  -25.17  -25.70  -26.16  -26.25  -26.07  -25.85  -25.72
   6   -22.20  -22.28  -22.44  -22.65  -22.86  -23.04  -23.13  -23.14  -23.12  -23.09
   7   -20.46  -20.50  -20.57  -20.67  -20.76  -20.85  -20.91  -20.94  -20.96  -20.96
   8   -19.11  -19.13  -19.16  -19.21  -19.26  -19.30  -19.34  -19.37  -19.38  -19.39
   9   -18.20  -18.21  -18.23  -18.25  -18.28  -18.31  -18.33  -18.35  -18.36  -18.36
  10   -17.74  -17.75  -17.76  -17.78  -17.79  -17.81  -17.83  -17.84  -17.85  -17.86

 HEAD WILL BE SAVED ON UNIT   21 AT END OF TIME STEP   6, STRESS PERIOD   31

 DRAWDOWN WILL BE SAVED ON UNIT   22 AT END OF TIME STEP   6, STRESS PERIOD   31
1
  VOLUMETRIC BUDGET FOR ENTIRE MODEL AT END OF TIME STEP  6 IN STRESS PERIOD  31
  ------------------------------------------------------------------------------

     CUMULATIVE VOLUMES      L**3       RATES FOR THIS TIME STEP      L**3/T
     ------------------                 ------------------------

           IN:                                      IN:
           ---                                      ---
             STORAGE =    44996676.0000               STORAGE =        2945.9722
       CONSTANT HEAD =      873995.2500         CONSTANT HEAD =         169.2683
               WELLS =   328799808.0000                 WELLS =       30000.0000
    INST. IB STORAGE =    65361616.0000      INST. IB STORAGE =        4957.1099
    DELAY IB STORAGE =   169578400.0000      DELAY IB STORAGE =       14553.2275

            TOTAL IN =   609610496.0000              TOTAL IN =       52625.5781

          OUT:                                     OUT:
          ----                                     ----
             STORAGE =           0.0000               STORAGE =           0.0000
       CONSTANT HEAD =   280840960.0000         CONSTANT HEAD =       22625.6953
               WELLS =   328769824.0000                 WELLS =       30000.0000
    INST. IB STORAGE =           0.0000      INST. IB STORAGE =           0.0000
    DELAY IB STORAGE =           0.0000      DELAY IB STORAGE =           0.0000

           TOTAL OUT =   609610752.0000             TOTAL OUT =       52625.6953

            IN - OUT =        -256.0000              IN - OUT =          -0.1172

 PERCENT DISCREPANCY =           0.00     PERCENT DISCREPANCY =           0.00






          TIME SUMMARY AT END OF TIME STEP   6 IN STRESS PERIOD   31
                    SECONDS     MINUTES      HOURS       DAYS        YEARS
                    -----------------------------------------------------------
   TIME STEP LENGTH 9.18681E+06 1.53113E+05  2551.9      106.33     0.29111    
 STRESS PERIOD TIME 3.15619E+07 5.26032E+05  8767.2      365.30      1.0001    
         TOTAL TIME 9.46944E+08 1.57824E+07 2.63040E+05  10960.      30.007    
1

                               VOLUMETRIC BUDGET FOR SYSTEMS OF DELAY INTERBEDS
                                          AT END OF TIME STEP  6 IN STRESS PERIOD 31

          |   C U M U L A T I V E   V O L U M E S   L**3           | R A T E S   F O R  T H I S  T I M E  S T E P   L**3/T  |
   SYSTEM |    CHANGE IN     BOUNDARY                    PERCENT   |    CHANGE IN     BOUNDARY                    PERCENT   |
   NUMBER |     STORAGE        FLOW           SUM      DISCREPANCY |     STORAGE        FLOW           SUM      DISCREPANCY |
  --------|--------------------------------------------------------|--------------------------------------------------------|
      1    0.11530E+06   -0.11530E+06   -0.78125E-02   -0.67761E-05     7.7411        -7.7411         0.0000         0.0000    
      2    0.16946E+09   -0.16946E+09     0.0000         0.0000         14545.        -14545.        0.97656E-03    0.67139E-05
  --------|--------------------------------------------------------|--------------------------------------------------------|
 TOTALS:    0.16958E+09   -0.16958E+09     0.0000         0.0000         14553.        -14553.        0.97656E-03    0.67103E-05

 Run end date and time (yyyy/mm/dd hh:mm:ss): 2008/04/14  9:39:55
 Elapsed run time:  2.359 Seconds

