                                  MODFLOW-2005     
      U.S. GEOLOGICAL SURVEY MODULAR FINITE-DIFFERENCE GROUND-WATER FLOW MODEL
                            VERSION 1.5.00 4/28/2008

 LIST FILE: UZFtest2.lst
                         UNIT    9

 OPENING UZFtest2.ba6
 FILE TYPE:BAS6   UNIT   75   STATUS:OLD    
 FORMAT:FORMATTED              ACCESS:SEQUENTIAL          

 OPENING UZFtest2.lpf
 FILE TYPE:LPF   UNIT    7   STATUS:OLD    
 FORMAT:FORMATTED              ACCESS:SEQUENTIAL          

 OPENING UZFtest2.dis
 FILE TYPE:DIS   UNIT    8   STATUS:OLD    
 FORMAT:FORMATTED              ACCESS:SEQUENTIAL          

 OPENING UZFtest2.sip
 FILE TYPE:SIP   UNIT   13   STATUS:OLD    
 FORMAT:FORMATTED              ACCESS:SEQUENTIAL          

 OPENING UZFtest2.oc
 FILE TYPE:OC   UNIT   14   STATUS:OLD    
 FORMAT:FORMATTED              ACCESS:SEQUENTIAL          

 OPENING UZFtest2.sfr
 FILE TYPE:SFR   UNIT   15   STATUS:OLD    
 FORMAT:FORMATTED              ACCESS:SEQUENTIAL          

 OPENING UZFtest2.wel
 FILE TYPE:WEL   UNIT   16   STATUS:OLD    
 FORMAT:FORMATTED              ACCESS:SEQUENTIAL          

 OPENING UZFtest2.ghb
 FILE TYPE:GHB   UNIT   17   STATUS:OLD    
 FORMAT:FORMATTED              ACCESS:SEQUENTIAL          

 OPENING UZFtest2.uzf
 FILE TYPE:UZF   UNIT   19   STATUS:OLD    
 FORMAT:FORMATTED              ACCESS:SEQUENTIAL          

 OPENING UZFtest2.gag
 FILE TYPE:GAGE   UNIT   32   STATUS:OLD    
 FORMAT:FORMATTED              ACCESS:SEQUENTIAL          

 OPENING UZFtest2hd.out
 FILE TYPE:DATA   UNIT   58   STATUS:UNKNOWN
 FORMAT:FORMATTED              ACCESS:SEQUENTIAL          

 OPENING UZFtest2.uzfot
 FILE TYPE:DATA(BINARY)   UNIT   61   STATUS:UNKNOWN
 FORMAT:BINARY                 ACCESS:SEQUENTIAL          

 OPENING UZFtest2.uzf1
 FILE TYPE:DATA   UNIT   65   STATUS:UNKNOWN
 FORMAT:FORMATTED              ACCESS:SEQUENTIAL          

 OPENING UZFtest2.uzf2
 FILE TYPE:DATA   UNIT   66   STATUS:UNKNOWN
 FORMAT:FORMATTED              ACCESS:SEQUENTIAL          

 OPENING UZFtest2.uzf3
 FILE TYPE:DATA   UNIT   67   STATUS:UNKNOWN
 FORMAT:FORMATTED              ACCESS:SEQUENTIAL          

 OPENING UZFtest2.uzf4
 FILE TYPE:DATA   UNIT   68   STATUS:UNKNOWN
 FORMAT:FORMATTED              ACCESS:SEQUENTIAL          

 OPENING UZFtest2.flw
 FILE TYPE:DATA   UNIT   81   STATUS:UNKNOWN
 FORMAT:FORMATTED              ACCESS:SEQUENTIAL          

 OPENING UZFtest2.sg1
 FILE TYPE:DATA   UNIT   83   STATUS:UNKNOWN
 FORMAT:FORMATTED              ACCESS:SEQUENTIAL          

 OPENING UZFtest2.sg2
 FILE TYPE:DATA   UNIT   84   STATUS:UNKNOWN
 FORMAT:FORMATTED              ACCESS:SEQUENTIAL          

 OPENING UZFtest2.sg3
 FILE TYPE:DATA   UNIT   85   STATUS:UNKNOWN
 FORMAT:FORMATTED              ACCESS:SEQUENTIAL          

 OPENING UZFtest2.sg4
 FILE TYPE:DATA   UNIT   86   STATUS:UNKNOWN
 FORMAT:FORMATTED              ACCESS:SEQUENTIAL          

 OPENING UZFtest2.sg5
 FILE TYPE:DATA   UNIT   87   STATUS:UNKNOWN
 FORMAT:FORMATTED              ACCESS:SEQUENTIAL          

 OPENING UZFtest2.sg6
 FILE TYPE:DATA   UNIT   88   STATUS:UNKNOWN
 FORMAT:FORMATTED              ACCESS:SEQUENTIAL          

 OPENING UZFtest2.sg7
 FILE TYPE:DATA   UNIT   89   STATUS:UNKNOWN
 FORMAT:FORMATTED              ACCESS:SEQUENTIAL          

 OPENING UZFtest2.sg8
 FILE TYPE:DATA   UNIT   90   STATUS:UNKNOWN
 FORMAT:FORMATTED              ACCESS:SEQUENTIAL          

 OPENING UZFtest2dv.sg9
 FILE TYPE:DATA   UNIT   91   STATUS:UNKNOWN
 FORMAT:FORMATTED              ACCESS:SEQUENTIAL          

 BAS -- BASIC PACKAGE, VERSION 7, 5/2/2005 INPUT READ FROM UNIT   75

 DISCRETIZATION INPUT DATA READ FROM UNIT    8
 #Test problem 2-- Discretization input
 #Example problem using the UZF1 Package
    1 LAYERS        15 ROWS        10 COLUMNS
   12 STRESS PERIOD(S) IN SIMULATION
 MODEL TIME UNIT IS SECONDS
 MODEL LENGTH UNIT IS FEET
  Confining bed flag for each layer:
   0

                     DELR =   5000.00    

                     DELC =   5000.00    



           TOP ELEVATION OF LAYER 1
 READING ON UNIT    8 WITH FORMAT: (10F7.0)            

            1           2           3           4           5           6           7           8           9          10
 ........................................................................................................................
   1    1105.       1105.       0.000       0.000       0.000       0.000       0.000       0.000       0.000       0.000    
   2    1105.       1095.       1105.       0.000       0.000       1100.       1100.       1110.       0.000       0.000    
   3    0.000       1100.       1085.       1080.       1078.       1076.       1073.       1090.       0.000       0.000    
   4    1110.       1100.       1090.       1085.       1076.       1080.       1080.       1070.       1100.       0.000    
   5    1110.       1100.       1085.       1080.       1078.       1074.       1077.       1066.       1075.       1080.    
   6    1105.       1095.       1080.       1077.       1073.       1069.       1070.       1063.       1085.       1095.    
   7    1105.       1090.       1075.       1072.       1070.       1065.       1065.       1069.       1090.       0.000    
   8    0.000       1080.       1070.       1068.       1063.       1060.       1063.       1067.       1090.       0.000    
   9    0.000       1075.       1065.       1062.       1058.       1052.       1055.       1065.       1090.       0.000    
  10    0.000       1070.       1060.       1055.       1046.       1046.       1044.       1060.       1088.       1100.    
  11    0.000       1055.       1050.       1045.       1041.       1042.       1040.       1050.       1075.       0.000    
  12    1027.       1028.       1028.       1032.       1032.       1033.       1032.       1040.       1060.       0.000    
  13    997.0       1004.       1008.       1014.       1020.       1027.       1032.       1038.       1050.       0.000    
  14    0.000       1030.       1040.       1045.       1050.       1050.       1050.       1050.       1044.       0.000    
  15    0.000       0.000       1080.       1080.       1080.       1080.       0.000       0.000       0.000       0.000    



             MODEL LAYER BOTTOM EL. FOR LAYER   1
 READING ON UNIT    8 WITH FORMAT: (10F7.0)            

            1           2           3           4           5           6           7           8           9          10
 ........................................................................................................................
   1    1000.       1000.       0.000       0.000       0.000       0.000       0.000       0.000       0.000       0.000    
   2    1000.       900.0       900.0       0.000       0.000       950.0       950.0       950.0       0.000       0.000    
   3    0.000       850.0       670.0       680.0       680.0       770.0       770.0       890.0       0.000       0.000    
   4    925.0       850.0       650.0       650.0       650.0       680.0       740.0       850.0       950.0       0.000    
   5    925.0       800.0       650.0       600.0       600.0       600.0       650.0       720.0       850.0       950.0    
   6    925.0       800.0       650.0       600.0       550.0       600.0       650.0       720.0       850.0       970.0    
   7    925.0       800.0       650.0       600.0       550.0       600.0       650.0       720.0       950.0       0.000    
   8    0.000       850.0       700.0       650.0       570.0       600.0       700.0       850.0       950.0       0.000    
   9    0.000       850.0       700.0       650.0       540.0       580.0       700.0       850.0       950.0       0.000    
  10    0.000       850.0       700.0       630.0       530.0       580.0       650.0       800.0       900.0       950.0    
  11    0.000       850.0       700.0       620.0       580.0       620.0       700.0       800.0       900.0       0.000    
  12    900.0       830.0       710.0       640.0       600.0       650.0       700.0       800.0       900.0       0.000    
  13    900.0       810.0       750.0       700.0       650.0       700.0       750.0       800.0       900.0       0.000    
  14    0.000       950.0       850.0       850.0       850.0       850.0       850.0       850.0       850.0       0.000    
  15    0.000       0.000       950.0       950.0       950.0       950.0       0.000       0.000       0.000       0.000    


 STRESS PERIOD     LENGTH       TIME STEPS     MULTIPLIER FOR DELT    SS FLAG
 ----------------------------------------------------------------------------
        1         2628000.          1                    1.000         SS
        2         2628000.         15                    1.100         TR
        3         2628000.         15                    1.100         TR
        4         2628000.         15                    1.100         TR
        5         2628000.         15                    1.100         TR
        6         2628000.         15                    1.100         TR
        7         2628000.         15                    1.100         TR
        8         2628000.         15                    1.100         TR
        9         2628000.         15                    1.100         TR
       10         2628000.         15                    1.100         TR
       11         2628000.         15                    1.100         TR
       12         2628000.         15                    1.100         TR

 COMBINED STEADY-STATE AND TRANSIENT SIMULATION



 
 #Test Simulation 2-- Example problem using the UZF1 Package                     
 #Modified from example Problem 1 of SFR1 documentation report                   
 THE FREE FORMAT OPTION HAS BEEN SELECTED



                     BOUNDARY ARRAY FOR LAYER   1
 READING ON UNIT   75 WITH FORMAT: (20I4)              

                1           2           3           4           5           6           7           8           9          10
 ............................................................................................................................
   1            1           1           0           0           0           0           0           0           0           0
   2            1           1           1           0           0           1           1           1           0           0
   3            0           1           1           1           1           1           1           1           0           0
   4            1           1           1           1           1           1           1           1           1           0
   5            1           1           1           1           1           1           1           1           1           1
   6            1           1           1           1           1           1           1           1           1           1
   7            1           1           1           1           1           1           1           1           1           0
   8            0           1           1           1           1           1           1           1           1           0
   9            0           1           1           1           1           1           1           1           1           0
  10            0           1           1           1           1           1           1           1           1           1
  11            0           1           1           1           1           1           1           1           1           0
  12            1           1           1           1           1           1           1           1           1           0
  13            1           1           1           1           1           1           1           1           1           0
  14            0           1           1           1           1           1           1           1           1           0
  15            0           0           1           1           1           1           0           0           0           0

 AQUIFER HEAD WILL BE SET TO  6999.0     AT ALL NO-FLOW NODES (IBOUND=0).



                       INITIAL HEAD FOR LAYER   1
 READING ON UNIT   75 WITH FORMAT: (10F8.0)            

            1           2           3           4           5           6           7           8           9          10
 ........................................................................................................................
   1    1093.       1089.       6999.       6999.       6999.       6999.       6999.       6999.       6999.       6999.    
   2    1090.       1087.       1081.       6999.       6999.       1072.       1071.       1071.       6999.       6999.    
   3    6999.       1079.       1078.       1074.       1072.       1071.       1069.       1068.       6999.       6999.    
   4    1069.       1071.       1070.       1067.       1065.       1064.       1064.       1066.       1066.       6999.    
   5    1065.       1064.       1063.       1062.       1061.       1061.       1060.       1062.       1066.       1068.    
   6    1060.       1058.       1057.       1056.       1056.       1057.       1057.       1059.       1062.       1066.    
   7    1056.       1053.       1052.       1051.       1051.       1052.       1053.       1055.       1056.       6999.    
   8    6999.       1046.       1046.       1046.       1046.       1046.       1048.       1050.       1050.       6999.    
   9    6999.       1039.       1039.       1039.       1040.       1041.       1042.       1043.       1044.       6999.    
  10    6999.       1031.       1032.       1033.       1034.       1035.       1037.       1038.       1039.       1042.    
  11    6999.       1021.       1023.       1027.       1029.       1030.       1032.       1034.       1036.       6999.    
  12    1001.       1009.       1015.       1020.       1023.       1026.       1029.       1030.       1034.       6999.    
  13    994.5       1000.       1007.       1013.       1019.       1024.       1029.       1034.       1036.       6999.    
  14    6999.       1004.       1009.       1014.       1019.       1024.       1029.       1035.       1039.       6999.    
  15    6999.       6999.       1012.       1015.       1019.       1022.       6999.       6999.       6999.       6999.    

 OUTPUT CONTROL IS SPECIFIED ONLY AT TIME STEPS FOR WHICH OUTPUT IS DESIRED
 HEADS WILL BE SAVED WITH FORMAT: (10F10.3)           
 SAVED HEADS WILL BE LABELED
 HEAD PRINT FORMAT CODE IS   4    DRAWDOWN PRINT FORMAT CODE IS   0
 HEADS WILL BE SAVED ON UNIT   58    DRAWDOWNS WILL BE SAVED ON UNIT    0

 LPF -- LAYER-PROPERTY FLOW PACKAGE, VERSION 7, 5/2/2005
         INPUT READ FROM UNIT    7
 #Layer-Property Flow Package input for test simulation 2
 HEAD AT CELLS THAT CONVERT TO DRY=   0.0000    
 No named parameters

   LAYER FLAGS:
 LAYER       LAYTYP        LAYAVG         CHANI        LAYVKA        LAYWET
 ---------------------------------------------------------------------------
    1             1             0     1.000E+00             0             0

   INTERPRETATION OF LAYER FLAGS:
                        INTERBLOCK     HORIZONTAL    DATA IN
         LAYER TYPE   TRANSMISSIVITY   ANISOTROPY   ARRAY VKA   WETTABILITY
 LAYER      (LAYTYP)      (LAYAVG)       (CHANI)      (LAYVKA)      (LAYWET)
 ---------------------------------------------------------------------------
    1   CONVERTIBLE      HARMONIC     1.000E+00    VERTICAL K  NON-WETTABLE

 WETTING CAPABILITY IS NOT ACTIVE IN ANY LAYER



              HYD. COND. ALONG ROWS FOR LAYER   1
 READING ON UNIT    7 WITH FORMAT: (10F5.0)            

            1           2           3           4           5           6           7           8           9          10
 ........................................................................................................................
   1   2.0000E-03  2.0000E-03   0.000       0.000       0.000       0.000       0.000       0.000       0.000       0.000    
   2   4.0000E-04  2.0000E-03  2.0000E-03   0.000       0.000      4.0000E-04  4.0000E-04  4.0000E-04   0.000       0.000    
   3    0.000      4.0000E-04  2.0000E-03  2.0000E-03  4.0000E-04  4.0000E-04  4.0000E-04  4.0000E-04   0.000       0.000    
   4   4.0000E-04  4.0000E-04  4.0000E-04  2.0000E-03  2.0000E-03  2.0000E-03  4.0000E-04  4.0000E-04  4.0000E-04   0.000    
   5   4.0000E-04  4.0000E-04  4.0000E-04  2.0000E-03  2.0000E-03  2.0000E-03  2.0000E-03  2.0000E-03  2.0000E-03  2.0000E-03
   6   4.0000E-04  4.0000E-04  4.0000E-04  2.0000E-03  2.0000E-03  2.0000E-03  2.0000E-03  2.0000E-03  4.0000E-04  4.0000E-04
   7   4.0000E-04  4.0000E-04  4.0000E-04  2.0000E-03  2.0000E-03  2.0000E-03  2.0000E-03  2.0000E-03  4.0000E-04   0.000    
   8    0.000      4.0000E-04  4.0000E-04  2.0000E-03  2.0000E-03  2.0000E-03  2.0000E-03  4.0000E-04  4.0000E-04   0.000    
   9    0.000      4.0000E-04  4.0000E-04  2.0000E-03  2.0000E-03  2.0000E-03  2.0000E-03  4.0000E-04  4.0000E-04   0.000    
  10    0.000      4.0000E-04  4.0000E-04  2.0000E-03  2.0000E-03  2.0000E-03  2.0000E-03  4.0000E-04  4.0000E-04  4.0000E-04
  11    0.000      4.0000E-04  4.0000E-04  2.0000E-03  2.0000E-03  2.0000E-03  2.0000E-03  4.0000E-04  4.0000E-04   0.000    
  12   4.0000E-04  4.0000E-04  2.0000E-03  2.0000E-03  2.0000E-03  2.0000E-03  2.0000E-03  4.0000E-04  4.0000E-04   0.000    
  13   2.0000E-03  2.0000E-03  2.0000E-03  2.0000E-03  2.0000E-03  2.0000E-03  2.0000E-03  2.0000E-03  2.0000E-03   0.000    
  14    0.000      4.0000E-04  4.0000E-04  4.0000E-04  4.0000E-04  4.0000E-04  4.0000E-04  4.0000E-04  2.0000E-03   0.000    
  15    0.000       0.000      4.0000E-04  4.0000E-04  4.0000E-04  4.0000E-04   0.000       0.000       0.000       0.000    

      VERTICAL HYD. COND. =  1.000000E-06 FOR LAYER   1

         SPECIFIC STORAGE =  1.000000E-06 FOR LAYER   1



                     SPECIFIC YIELD FOR LAYER   1
 READING ON UNIT    7 WITH FORMAT: (10F5.0)            

            1           2           3           4           5           6           7           8           9          10
 ........................................................................................................................
   1   0.2000      0.2000       0.000       0.000       0.000       0.000       0.000       0.000       0.000       0.000    
   2   0.1000      0.2000      0.2000       0.000       0.000      0.1000      0.1000      0.1000       0.000       0.000    
   3    0.000      0.1000      0.2000      0.2000      0.1000      0.1000      0.1000      0.1000       0.000       0.000    
   4   0.1000      0.1000      0.1000      0.2000      0.2000      0.2000      0.1000      0.1000      0.1000       0.000    
   5   0.1000      0.1000      0.1000      0.2000      0.2000      0.2000      0.2000      0.2000      0.2000      0.2000    
   6   0.1000      0.1000      0.1000      0.2000      0.2000      0.2000      0.2000      0.2000      0.1000      0.1000    
   7   0.1000      0.1000      0.1000      0.2000      0.2000      0.2000      0.2000      0.2000      0.1000       0.000    
   8    0.000      0.1000      0.1000      0.2000      0.2000      0.2000      0.2000      0.1000      0.1000       0.000    
   9    0.000      0.1000      0.1000      0.2000      0.2000      0.2000      0.2000      0.1000      0.1000       0.000    
  10    0.000      0.1000      0.1000      0.2000      0.2000      0.2000      0.2000      0.1000      0.1000      0.1000    
  11    0.000      0.1000      0.1000      0.2000      0.2000      0.2000      0.2000      0.1000      0.1000       0.000    
  12   0.1000      0.1000      0.2000      0.2000      0.2000      0.2000      0.2000      0.1000      0.1000       0.000    
  13   0.2000      0.2000      0.2000      0.2000      0.2000      0.2000      0.2000      0.2000      0.2000       0.000    
  14    0.000      0.1000      0.1000      0.1000      0.1000      0.1000      0.1000      0.1000      0.2000       0.000    
  15    0.000       0.000      0.1000      0.1000      0.1000      0.1000       0.000       0.000       0.000       0.000    

 WEL -- WELL PACKAGE, VERSION 7, 5/2/2005 INPUT READ FROM UNIT   16
 #Well Package input for test simulation 2
 No named parameters
 MAXIMUM OF     10 ACTIVE WELLS AT ONE TIME
 CELL-BY-CELL FLOWS WILL BE PRINTED WHEN ICBCFL NOT 0


     0 Well parameters

 GHB -- GENERAL-HEAD BOUNDARY PACKAGE, VERSION 7, 5/2/2005
         INPUT READ FROM UNIT   17
 No named parameters
 MAXIMUM OF      2 ACTIVE GHB CELLS AT ONE TIME
 CELL-BY-CELL FLOWS WILL BE PRINTED WHEN ICBCFL NOT 0


     0 GHB parameters

 SFR7 -- STREAMFLOW ROUTING PACKAGE, VERSION 7.1, 06/29/2006
         INPUT READ FROM UNIT  15
 #SFR2 Package input for Test Simulation 2


 NUMBER OF STREAM REACHES IS   36

 NUMBER OF STREAM SEGMENTS IS    8

 NUMBER OF STREAM PARAMETERS IS    0

 NUMBER OF STREAM SEGMENTS DEFINED USING PARAMETERS IS    0

 MAXIMUM ERROR FOR STREAM LEAKAGE RATES IS  1.00E-06

 CONSTANT FOR MANNINGS EQUATION IS  1.4860E+00



 STREAM OUTPUT WILL BE WRITTEN TO FILE ON UNIT  81


   STREAM NETWORK DESCRIPTION: 

   LAYER    ROW    COL   SEGMENT   REACH     LENGTH
                          NUMBER   NUMBER    IN CELL
   --------------------------------------------------
      1      1      1       1        1    4.5000E+03
      1      2      2       1        2    7.0000E+03
      1      3      3       1        3    6.0000E+03
      1      3      4       1        4    5.5500E+03
      1      4      5       2        1    6.5000E+03
      1      5      6       2        2    5.0000E+03
      1      6      6       2        3    5.0000E+03
      1      7      6       2        4    5.0000E+03
      1      8      6       2        5    5.0000E+03
      1      3      5       3        1    5.0000E+03
      1      3      6       3        2    5.0000E+03
      1      3      7       3        3    4.5000E+03
      1      4      8       3        4    6.0000E+03
      1      5      8       3        5    5.0000E+03
      1      6      8       3        6    2.0000E+03
      1      5     10       4        1    2.5000E+03
      1      5      9       4        2    5.0000E+03
      1      6      8       4        3    3.5000E+03
      1      6      8       5        1    4.0000E+03
      1      7      7       5        2    5.0000E+03
      1      8      7       5        3    3.5000E+03
      1      8      6       5        4    2.5000E+03
      1      9      6       6        1    5.0000E+03
      1     10      7       6        2    5.0000E+03
      1     11      7       6        3    5.0000E+03
      1     12      7       6        4    5.0000E+03
      1     13      7       6        5    2.0000E+03
      1     14      9       7        1    5.0000E+03
      1     13      8       7        2    5.5000E+03
      1     13      7       7        3    5.0000E+03
      1     13      6       8        1    5.0000E+03
      1     13      5       8        2    5.0000E+03
      1     13      4       8        3    5.0000E+03
      1     13      3       8        4    5.0000E+03
      1     13      2       8        5    5.0000E+03
      1     13      1       8        6    3.0000E+03




 UZF1 -- UNSATURATED FLOW PACKAGE, VERSION 1.2, 01/14/2006
         INPUT READ FROM UNIT 19
 #UZF Package input for test simulation 2
 OPTION 1 -- RECHARGE IN UZF TO TOP LAYER ONLY 



            AREAL EXTENT OF UZ FLOW
 READING ON UNIT   19 WITH FORMAT: (20I4)              

                1           2           3           4           5           6           7           8           9          10
 ............................................................................................................................
   1            1           1           0           0           0           0           0           0           0           0
   2            1           1           1           0           0           1           1           1           0           0
   3            0           1           1           1           1           1           1           1           0           0
   4            1           1           1           1           1           1           1           1           1           0
   5            1           1           1           1           1           1           1           1           1           1
   6            1           1           1           1           1           1           1           1           1           1
   7            1           1           1           1           1           1           1           1           1           0
   8            0           1           1           1           1           1           1           1           1           0
   9            0           1           1           1           1           1           1           1           1           0
  10            0           1           1           1           1           1           1           1           1           1
  11            0           1           1           1           1           1           1           1           1           0
  12            1           1           1           1           1           1           1           1           1           0
  13            1           1           1           1           1           1           1           1           1           0
  14            0           1           1           1           1           1           1           1           1           0
  15            0           0           1           1           1           1           0           0           0           0



            ROUTING OVERLAND RUNOFF
 READING ON UNIT   19 WITH FORMAT: (20I4)              

                1           2           3           4           5           6           7           8           9          10
 ............................................................................................................................
   1            1           1           0           0           0           0           0           0           0           0
   2            1           1           1           0           0           3           3           3           0           0
   3            0           1           1           1           3           3           3           3           0           0
   4            8           8           2           2           2           2           2           3           3           0
   5            8           8           8           8           2           2           2           3           4           4
   6            8           8           8           8           8           2           2           4           4           4
   7            8           8           8           8           8           2           5           5           5           0
   8            0           8           8           8           8           2           5           5           5           0
   9            0           8           8           8           8           6           6           6           6           0
  10            0           8           8           8           8           6           6           6           6           6
  11            0           8           8           8           8           8           6           6           7           0
  12            8           8           8           8           8           8           6           7           7           0
  13            8           8           8           8           8           8           7           7           7           0
  14            0           8           8           8           8           8           7           7           7           0
  15            0           0           8           8           8           8           0           0           0           0



               SATURATED VERTICAL K
 READING ON UNIT   19 WITH FORMAT: (10F4.0)            

            1           2           3           4           5           6           7           8           9          10
 ........................................................................................................................
   1   1.0000E-06  1.0000E-06   0.000       0.000       0.000       0.000       0.000       0.000       0.000       0.000    
   2   1.0000E-06  1.0000E-06  1.0000E-06   0.000       0.000      1.0000E-06  1.0000E-06  1.0000E-06   0.000       0.000    
   3    0.000      1.0000E-06  1.0000E-06  1.0000E-06  1.0000E-06  1.0000E-06  1.0000E-06  1.0000E-06   0.000       0.000    
   4   1.0000E-06  1.0000E-06  1.0000E-06  1.0000E-06  1.0000E-06  1.0000E-06  1.0000E-06  1.0000E-06  1.0000E-06   0.000    
   5   1.0000E-06  1.0000E-06  1.0000E-06  1.0000E-06  1.0000E-06  1.0000E-06  1.0000E-06  1.0000E-06  1.0000E-06  1.0000E-06
   6   1.0000E-06  1.0000E-06  1.0000E-06  1.0000E-06  1.0000E-06  1.0000E-06  1.0000E-06  1.0000E-06  1.0000E-06  1.0000E-06
   7   1.0000E-06  1.0000E-06  1.0000E-06  1.0000E-06  1.0000E-06  1.0000E-06  1.0000E-06  1.0000E-06  1.0000E-06   0.000    
   8    0.000      1.0000E-06  1.0000E-06  1.0000E-06  1.0000E-06  1.0000E-06  1.0000E-06  1.0000E-06  1.0000E-06   0.000    
   9    0.000      1.0000E-06  1.0000E-06  1.0000E-06  1.0000E-06  1.0000E-06  1.0000E-06  1.0000E-06  1.0000E-06   0.000    
  10    0.000      1.0000E-06  1.0000E-06  1.0000E-06  1.0000E-06  1.0000E-06  1.0000E-06  1.0000E-06  1.0000E-06  1.0000E-06
  11    0.000      1.0000E-06  1.0000E-06  1.0000E-06  1.0000E-06  1.0000E-06  1.0000E-06  1.0000E-06  1.0000E-06   0.000    
  12   1.0000E-06  1.0000E-06  1.0000E-06  1.0000E-06  1.0000E-06  1.0000E-06  1.0000E-06  1.0000E-06  1.0000E-06   0.000    
  13   1.0000E-06  1.0000E-06  1.0000E-06  1.0000E-06  1.0000E-06  1.0000E-06  1.0000E-06  1.0000E-06  1.0000E-06   0.000    
  14    0.000      1.0000E-06  1.0000E-06  1.0000E-06  1.0000E-06  1.0000E-06  1.0000E-06  1.0000E-06  1.0000E-06   0.000    
  15    0.000       0.000      1.0000E-06  1.0000E-06  1.0000E-06  1.0000E-06   0.000       0.000       0.000       0.000    

     BROOKS-COREY EPSILON =   3.50000    

  SATURATED WATER CONTENT =  0.300000    
       3             6                 65                 1
       6             3                 66                 2
      10             5                 67                 3
       0             0                 68                 4



   9 GAGING STATIONS WERE SPECIFIED.
     (Lakes are identified by a negative value of the Lake Number)
     RECORDS WILL BE WRITTEN TO SEPARATE OUTPUT FILES REPRESENTED BY FOLLOWING UNIT NUMBERS:

 Stream Gages:
  GAGE #   SEGMENT   REACH   UNIT   OUTTYPE
       1       1       4      83       1
       2       2       3      84       1
       3       3       5      85       1
       4       4       3      86       1
       5       5       4      87       4
       6       6       5      88       4
       7       7       3      89       4
       8       8       6      90       4
       9       3       1      91       5





 SIP -- STRONGLY-IMPLICIT PROCEDURE SOLUTION PACKAGE
                    VERSION 7, 5/2/2005 INPUT READ FROM UNIT   13
 MAXIMUM OF 300 ITERATIONS ALLOWED FOR CLOSURE
  5 ITERATION PARAMETERS

          SOLUTION BY THE STRONGLY IMPLICIT PROCEDURE
          -------------------------------------------
 MAXIMUM ITERATIONS ALLOWED FOR CLOSURE =      300
                 ACCELERATION PARAMETER =    0.80000    
      HEAD CHANGE CRITERION FOR CLOSURE =    0.20000E-03
      SIP HEAD CHANGE PRINTOUT INTERVAL =        1

     CALCULATE ITERATION PARAMETERS FROM MODEL CALCULATED WSEED
1
                            STRESS PERIOD NO.    1, LENGTH =   2628000.    
                            -----------------------------------------------

                              NUMBER OF TIME STEPS =     1

                               MULTIPLIER FOR DELT =     1.000

                            INITIAL TIME STEP SIZE =   2628000.    

 WELL NO.  LAYER   ROW   COL   STRESS RATE         
 --------------------------------------------------
      1      1      6      4      -2.000    
      2      1      6      5      -2.000    
      3      1      7      4      -2.000    
      4      1      7      5      -2.000    
      5      1      8      4      -2.000    
      6      1      8      5      -2.000    
      7      1      9      4      -2.000    
      8      1      9      5      -2.000    
      9      1     10      4      -2.000    
     10      1     10      5      -2.000    

     10 WELLS

 BOUND. NO. LAYER   ROW   COL     STAGE      CONDUCTANCE         
 ----------------------------------------------------------------
      1      1     13      1       988.0          0.3800E-01
      2      1     14      9       1045.          0.3800E-01

      2 GHB CELLS



 CLASSIFICATION & COUNT OF STREAM SEGMENTS BASED ON SOURCE OF INFLOW:

                HEADWATER     DIVERSION     RECEIVES TRIBUTARY FLOW
                ---------     ---------     -----------------------
                     3              1               4



                    INPUT DATA FOR EACH STREAM SEGMENT
 ---------------------------------------------------------------------------------------------

 SEGMENT    SEG.     INFLOW   OVERLAND   STREAM    STREAM   ICALC  OUTFLOW  DIVERSION PRIORITY
    NO.    LENGTH     RATE     RUNOFF      ET       PPT.    METH.  TO SEG.  FROM SEG.    NO.

      1  2.305E+04 2.500E+01 0.000E+00 0.000E+00 0.000E+00    4        2        0        0
      2  2.650E+04 0.000E+00 0.000E+00 0.000E+00 0.000E+00    1        6        0        0
      3  2.750E+04 1.000E+01 0.000E+00 0.000E+00 0.000E+00    0        5        1        0
      4  1.100E+04 1.000E+01 0.000E+00 0.000E+00 0.000E+00    1        5        0        0
      5  1.500E+04 0.000E+00 0.000E+00 0.000E+00 0.000E+00    3        6        0        0
      6  2.200E+04 0.000E+00 0.000E+00 0.000E+00 0.000E+00    1        8        0        0
      7  1.550E+04 1.500E+02 0.000E+00 0.000E+00 0.000E+00    2        8        0        0
      8  2.800E+04 0.000E+00 0.000E+00 0.000E+00 0.000E+00    2        0        0        0


         STREAMBED PROPERTIES AND STREAM DIMENSIONS

 SEGMENT     BED HYD. COND.      BED THICKNESS     ELEV.-TOP OF BED     WIDTH OF STREAM     DEPTH OF STREAM    STREAM ROUGHNESS
    No.     UPPER     LOWER     UPPER     LOWER     UPPER     LOWER     UPPER     LOWER     UPPER     LOWER   CHANNEL      BANK

     1  3.000E-05 3.000E-05 3.000E+00 3.000E+00 1.095E+03 1.075E+03
     2  3.000E-05 3.000E-05 3.000E+00 3.000E+00 1.075E+03 1.050E+03 1.200E+01 1.200E+01                     3.000E-02
     3  3.000E-05 3.000E-05 2.000E+00 2.000E+00 1.075E+03 1.060E+03 1.000E+01 6.000E+00 2.000E+00 1.000E+00
     4  3.000E-05 3.000E-05 3.000E+00 3.000E+00 1.080E+03 1.060E+03 1.000E+01 1.000E+01                     3.000E-02
     5  3.000E-05 3.000E-05 3.000E+00 3.000E+00 1.060E+03 1.045E+03
     6  3.000E-05 3.000E-05 3.000E+00 3.000E+00 1.045E+03 1.025E+03 1.200E+01 1.200E+01                     3.000E-02
     7  6.000E-05 6.000E-05 3.000E+00 3.000E+00 1.040E+03 1.025E+03                                         2.500E-02 4.500E-02
     8  6.000E-05 6.000E-05 3.000E+00 3.000E+00 1.025E+03 9.900E+02                                         2.500E-02 4.500E-02

  EIGHT POINT CROSS-SECTION DATA FOR SEGMENTS WITH ICALC = 2
    X VALUES X VALUES START FROM LEFT SIDE LOOKING DOWNSTREAM

     SEGMENT NO.        X1        X2        X3        X4        X5        X6        X7        X8
            7      0.000E+00 1.000E+01 8.000E+01 1.000E+02 1.500E+02 1.700E+02 2.400E+02 2.500E+02
            8      0.000E+00 1.000E+01 8.000E+01 1.000E+02 1.500E+02 1.700E+02 2.400E+02 2.500E+02

    Z VALUES ARE RELATIVE TO STREAMBED ELEVATION

     SEGMENT NO.          Z1        Z2        Z3        Z4        Z5        Z6        Z7        Z8
            7      2.000E+01 1.300E+01 1.000E+01 2.000E+00 0.000E+00 1.000E+01 1.300E+01 2.000E+01
            8      2.500E+01 1.700E+01 1.300E+01 4.000E+00 0.000E+00 1.000E+01 1.600E+01 2.000E+01

 STREAMFLOW RELATION WITH DEPTH IS BASED ON EQUATION Q = CDPTH*(DEPTH)**FDPTH
 STREAMFLOW RELATION WITH WIDTH IS BASED ON EQUATION Q = AWDTH*(WIDTH)**BWDTH

 SEGMENT NO.      CDPTH     FDPTH    AWDTH     BWDTH

          5 3.000E-01 3.500E-01 3.800E+00 6.000E-01

 STREAMFLOW RELATION WITH DEPTH AND WIDTH IS BASED ON TABULATED VALUES

  SEGMENT NO.   STREAMFLOW       DEPTH       WIDTH

          1     5.0000E-01   2.5000E-01   3.0000E+00
          1     1.0000E+00   4.0000E-01   3.5000E+00
          1     2.0000E+00   5.5000E-01   4.2000E+00
          1     4.0000E+00   7.0000E-01   5.3000E+00
          1     7.0000E+00   8.0000E-01   7.0000E+00
          1     1.0000E+01   9.0000E-01   8.5000E+00
          1     2.0000E+01   1.1000E+00   1.2000E+01
          1     3.0000E+01   1.2500E+00   1.4000E+01
          1     5.0000E+01   1.4000E+00   1.7000E+01
          1     7.5000E+01   1.7000E+00   2.0000E+01
          1     1.0000E+02   1.8000E+00   2.2000E+01






            AREAL INFILTRATION RATE
 READING ON UNIT   19 WITH FORMAT: (10F4.0)            

            1           2           3           4           5           6           7           8           9          10
 ........................................................................................................................
   1   1.0000E-09  2.0000E-09   0.000       0.000       0.000       0.000       0.000       0.000       0.000       0.000    
   2   2.0000E-09  1.0000E-09  2.0000E-09   0.000       0.000      8.0000E-09  8.0000E-09  5.0000E-09   0.000       0.000    
   3    0.000      5.0000E-09  1.0000E-09  1.0000E-09  8.0000E-09  8.0000E-09  5.0000E-09  5.0000E-09   0.000       0.000    
   4   8.0000E-09  5.0000E-09  1.0000E-09  1.0000E-09  1.0000E-09  1.0000E-09  1.0000E-09  1.0000E-09  2.0000E-09   0.000    
   5   8.0000E-09  5.0000E-09  1.0000E-09  1.0000E-09  1.0000E-09  1.0000E-09  1.0000E-09  1.0000E-09  1.0000E-09  1.0000E-09
   6   8.0000E-09  5.0000E-09  5.0000E-09  2.0000E-09  2.0000E-09  1.0000E-09  1.0000E-09  1.0000E-09  1.0000E-09  5.0000E-09
   7   8.0000E-09  5.0000E-09  5.0000E-09  2.0000E-09  2.0000E-09  1.0000E-09  1.0000E-09  2.0000E-09  2.0000E-09   0.000    
   8    0.000      5.0000E-09  5.0000E-09  2.0000E-09  2.0000E-09  1.0000E-09  1.0000E-09  2.0000E-09  5.0000E-09   0.000    
   9    0.000      5.0000E-09  5.0000E-09  2.0000E-09  2.0000E-09  1.0000E-09  1.0000E-09  2.0000E-09  5.0000E-09   0.000    
  10    0.000      5.0000E-09  5.0000E-09  2.0000E-09  2.0000E-09  1.0000E-09  1.0000E-09  2.0000E-09  5.0000E-09  8.0000E-09
  11    0.000      1.0000E-09  1.0000E-09  1.0000E-09  1.0000E-09  1.0000E-09  1.0000E-09  2.0000E-09  5.0000E-09   0.000    
  12   1.0000E-09  1.0000E-09  1.0000E-09  1.0000E-09  1.0000E-09  1.0000E-09  1.0000E-09  1.0000E-09  2.0000E-09   0.000    
  13   1.0000E-09  1.0000E-09  2.0000E-09  2.0000E-09  2.0000E-09  2.0000E-09  2.0000E-09  1.0000E-09  1.0000E-09   0.000    
  14    0.000      2.0000E-09  5.0000E-09  5.0000E-09  5.0000E-09  5.0000E-09  5.0000E-09  2.0000E-09  1.0000E-09   0.000    
  15    0.000       0.000      8.0000E-09  8.0000E-09  8.0000E-09  8.0000E-09   0.000       0.000       0.000       0.000    

                  ET RATE =  5.000000E-08

      ET EXTINCTION DEPTH =   15.0000    



           EXTINCTION WATER CONTENT
 READING ON UNIT   19 WITH FORMAT: (10F4.0)            

            1           2           3           4           5           6           7           8           9          10
 ........................................................................................................................
   1   0.1000      0.1000       0.000       0.000       0.000       0.000       0.000       0.000       0.000       0.000    
   2   0.2000      0.1000      0.1000       0.000       0.000      0.2000      0.2000      0.2000       0.000       0.000    
   3    0.000      0.2000      0.1000      0.1000      0.2000      0.2000      0.2000      0.2000       0.000       0.000    
   4   0.2000      0.2000      0.2000      0.1000      0.1000      0.1000      0.2000      0.2000      0.2000      0.1000    
   5   0.2000      0.2000      0.2000      0.1000      0.1000      0.1000      0.1000      0.1000      0.1000      0.1000    
   6   0.2000      0.2000      0.2000      0.1000      0.1000      0.1000      0.1000      0.1000      0.2000      0.2000    
   7   0.2000      0.2000      0.2000      0.1000      0.1000      0.1000      0.1000      0.1000      0.2000       0.000    
   8    0.000      0.2000      0.2000      0.1000      0.1000      0.1000      0.1000      0.2000      0.2000       0.000    
   9    0.000      0.2000      0.2000      0.1000      0.1000      0.1000      0.1000      0.2000      0.2000       0.000    
  10    0.000      0.2000      0.2000      0.1000      0.1000      0.1000      0.1000      0.2000      0.2000      0.2000    
  11    0.000      0.2000      0.2000      0.1000      0.1000      0.1000      0.1000      0.2000      0.2000       0.000    
  12   0.2000      0.2000      0.1000      0.1000      0.1000      0.1000      0.1000      0.2000      0.2000       0.000    
  13   0.1000      0.1000      0.1000      0.1000      0.1000      0.1000      0.1000      0.1000      0.1000       0.000    
  14    0.000      0.2000      0.2000      0.2000      0.2000      0.2000      0.2000      0.2000      0.1000       0.000    
  15    0.000       0.000      0.2000      0.2000      0.2000      0.2000       0.000       0.000       0.000       0.000    
 
 SOLVING FOR HEAD 

 AVERAGE SEED = 0.00926840
 MINIMUM SEED = 0.00187768

     5 ITERATION PARAMETERS CALCULATED FROM AVERAGE SEED:

  0.000000E+00 0.689722E+00 0.903727E+00 0.970129E+00 0.990732E+00

    30 ITERATIONS FOR TIME STEP   1 IN STRESS PERIOD    1

 MAXIMUM HEAD CHANGE FOR EACH ITERATION:

    HEAD CHANGE   HEAD CHANGE   HEAD CHANGE   HEAD CHANGE   HEAD CHANGE
  LAYER,ROW,COL LAYER,ROW,COL LAYER,ROW,COL LAYER,ROW,COL LAYER,ROW,COL
 ----------------------------------------------------------------------
      5.187        -1.627        -1.328        -1.137        -1.207    
  (  1, 15,  3) (  1,  8,  4) (  1,  6,  4) (  1,  7,  2) (  1, 10,  7)
    -0.4944       -0.1954       -0.2020       -0.2794       -0.1413    
  (  1, 10, 10) (  1,  9,  9) (  1,  8,  7) (  1,  7,  6) (  1, 10,  7)
    -0.1806       -0.3592E-01   -0.4329E-01   -0.4095E-01   -0.3823E-01
  (  1, 10, 10) (  1, 10, 10) (  1,  6,  5) (  1,  7,  1) (  1,  6,  6)
    -0.3407E-01   -0.8382E-02   -0.6787E-02   -0.9083E-02   -0.4930E-02
  (  1, 10, 10) (  1,  9,  9) (  1,  8,  5) (  1,  6,  1) (  1,  8,  2)
    -0.6406E-02   -0.1277E-02   -0.1631E-02   -0.1544E-02   -0.1431E-02
  (  1, 10, 10) (  1, 10, 10) (  1,  6,  5) (  1,  7,  1) (  1,  6,  6)
    -0.1242E-02   -0.3055E-03   -0.2480E-03   -0.3422E-03   -0.1875E-03
  (  1, 10, 10) (  1,  9,  9) (  1,  8,  5) (  1,  7,  6) (  1,  7,  3)


 OUTPUT CONTROL FOR STRESS PERIOD    1   TIME STEP   1
    PRINT BUDGET
    SAVE BUDGET

            WELLS   PERIOD    1   STEP   1
 WELL      1   LAYER   1   ROW     6   COL     4   RATE    -2.00000    
 WELL      2   LAYER   1   ROW     6   COL     5   RATE    -2.00000    
 WELL      3   LAYER   1   ROW     7   COL     4   RATE    -2.00000    
 WELL      4   LAYER   1   ROW     7   COL     5   RATE    -2.00000    
 WELL      5   LAYER   1   ROW     8   COL     4   RATE    -2.00000    
 WELL      6   LAYER   1   ROW     8   COL     5   RATE    -2.00000    
 WELL      7   LAYER   1   ROW     9   COL     4   RATE    -2.00000    
 WELL      8   LAYER   1   ROW     9   COL     5   RATE    -2.00000    
 WELL      9   LAYER   1   ROW    10   COL     4   RATE    -2.00000    
 WELL     10   LAYER   1   ROW    10   COL     5   RATE    -2.00000    

  HEAD DEP BOUNDS   PERIOD    1   STEP   1
 BOUNDARY      1   LAYER   1   ROW    13   COL     1   RATE   -0.261184    
 BOUNDARY      2   LAYER   1   ROW    14   COL     9   RATE    0.209945    
 UBDSV3 SAVING "           GW ET" ON UNIT  61 AT TIME STEP  1, STRESS PERIOD   1
 UBDSV3 SAVING "    UZF INFILTR." ON UNIT  61 AT TIME STEP  1, STRESS PERIOD   1
 UBDSV3 SAVING "    UZF RECHARGE" ON UNIT  61 AT TIME STEP  1, STRESS PERIOD   1
 UBDSV3 SAVING " SURFACE LEAKAGE" ON UNIT  61 AT TIME STEP  1, STRESS PERIOD   1


UNSATURATED ZONE PACKAGE VOLUMETRIC BUDGET FOR  TIME STEP    1 STRESS PERIOD    1
  ------------------------------------------------------------------------------



     CUMULATIVE VOLUMES      L**3       RATES FOR THIS TIME STEP      L**3/T
     ------------------                 ------------------------

           IN:                                      IN:
           ---                                      ---
        INFILTRATION =    22272299.5597          INFILTRATION =           8.4750

          OUT:                                     OUT:
          ----                                     ----
              UZF ET =       0.0000E+00                UZF ET =       0.0000E+00
        UZF RECHARGE =    22272299.5597          UZF RECHARGE =           8.4750

            IN - OUT =       0.0000E+00              IN - OUT =       0.0000E+00

          STORAGE:                                 STORAGE:
          --------                                 --------
      STORAGE CHANGE =       0.0000E+00        STORAGE CHANGE =       0.0000E+00

 PERCENT DISCREPANCY IS DIFFERENCE BETWEEN IN-OUT MINUS CHANGE IN STORAGE
 DIVIDED BY THE AVERAGE OF IN AND OUT TIMES 100

 PERCENT DISCREPANCY =           0.00     PERCENT DISCREPANCY =           0.00









 STREAM LISTING     PERIOD      1   STEP        1

 LAYER ROW COL. STREAM  RCH.  FLOW INTO     FLOW TO   FLOW OUT OF   OVRLND.     DIRECT     STREAM       STREAM     STREAM     STREAM   STREAMBED  STREAMBED
                SEG.NO.  NO.  STRM. RCH.    AQUIFER    STRM. RCH.    RUNOFF     PRECIP       ET          HEAD       DEPTH      WIDTH   CONDCTNC.   GRADIENT

   1    1    1     1     1    2.5000E+01  1.0782E+00   2.3922E+01  0.000E+00  0.000E+00  0.000E+00  1.09422E+03  1.172E+00  1.295E+01  5.830E-01  6.165E-01
   1    2    2     1     2    2.3922E+01  3.1526E+00   2.0769E+01  0.000E+00  0.000E+00  0.000E+00  1.08920E+03  1.139E+00  1.252E+01  8.762E-01  1.199E+00
   1    3    3     1     3    2.0769E+01  2.8941E+00   1.7875E+01  0.000E+00  0.000E+00  0.000E+00  1.08351E+03  1.089E+00  1.180E+01  7.078E-01  1.363E+00
   1    3    4     1     4    1.7875E+01  2.4577E+00   1.5417E+01  0.000E+00  0.000E+00  0.000E+00  1.07845E+03  1.043E+00  1.095E+01  6.079E-01  1.348E+00
   1    4    5     2     1    5.4174E+00  2.6578E+00   2.7596E+00  0.000E+00  0.000E+00  0.000E+00  1.07234E+03  4.075E-01  1.200E+01  7.800E-01  1.136E+00
   1    5    6     2     2    2.7596E+00  1.9487E+00   8.1089E-01  0.000E+00  0.000E+00  0.000E+00  1.06676E+03  2.478E-01  1.200E+01  6.000E-01  1.083E+00
   1    6    6     2     3    8.1089E-01  8.1089E-01   0.0000E+00  0.000E+00  0.000E+00  0.000E+00  1.06183E+03  3.473E-02  1.200E+01  6.000E-01  1.012E+00
   1    7    6     2     4    0.0000E+00  0.0000E+00   0.0000E+00  0.000E+00  0.000E+00  0.000E+00  1.05708E+03  0.000E+00  1.200E+01  6.000E-01  1.000E+00
   1    8    6     2     5    0.0000E+00  0.0000E+00   0.0000E+00  0.000E+00  0.000E+00  0.000E+00  1.05236E+03  0.000E+00  1.200E+01  6.000E-01  1.000E+00
   1    3    5     3     1    1.0000E+01  2.8252E+00   7.1748E+00  0.000E+00  0.000E+00  0.000E+00  1.07555E+03  1.909E+00  9.636E+00  7.227E-01  1.955E+00
   1    3    6     3     2    7.1748E+00  2.2827E+00   4.8921E+00  0.000E+00  0.000E+00  0.000E+00  1.07264E+03  1.727E+00  8.909E+00  6.682E-01  1.708E+00
   1    3    7     3     3    4.8921E+00  1.1634E+00   3.7287E+00  0.000E+00  0.000E+00  0.000E+00  1.06987E+03  1.555E+00  8.218E+00  5.547E-01  1.049E+00
   1    4    8     3     4    3.7287E+00  1.6871E+00   2.0416E+00  0.000E+00  0.000E+00  0.000E+00  1.06682E+03  1.364E+00  7.455E+00  6.709E-01  1.257E+00
   1    5    8     3     5    2.0416E+00  1.5790E+00   4.6258E-01  0.000E+00  0.000E+00  0.000E+00  1.06362E+03  1.164E+00  6.655E+00  4.991E-01  1.582E+00
   1    6    8     3     6    4.6258E-01  4.6258E-01   0.0000E+00  0.000E+00  0.000E+00  0.000E+00  1.06158E+03  0.000E+00  6.145E+00  1.844E-01  1.518E+00
   1    5   10     4     1    1.0000E+01  9.0525E-01   9.0947E+00  0.000E+00  0.000E+00  0.000E+00  1.07835E+03  6.210E-01  1.000E+01  2.500E-01  1.207E+00
   1    5    9     4     2    9.0947E+00  1.7835E+00   7.3113E+00  0.000E+00  0.000E+00  0.000E+00  1.07148E+03  5.670E-01  1.000E+01  5.000E-01  1.189E+00
   1    6    8     4     3    7.3113E+00  1.2257E+00   6.0855E+00  0.000E+00  0.000E+00  0.000E+00  1.06368E+03  5.021E-01  1.000E+01  3.500E-01  1.167E+00
   1    6    8     5     1    6.0855E+00  1.0332E+00   5.0523E+00  0.000E+00  0.000E+00  0.000E+00  1.05855E+03  5.472E-01  1.065E+01  4.259E-01  8.087E-01
   1    7    7     5     2    5.0523E+00  1.5857E+00   3.4666E+00  0.000E+00  0.000E+00  0.000E+00  1.05400E+03  4.982E-01  9.066E+00  4.533E-01  1.166E+00
   1    8    7     5     3    3.4666E+00  8.8887E-01   2.5778E+00  0.000E+00  0.000E+00  0.000E+00  1.04969E+03  4.418E-01  7.379E+00  2.583E-01  1.147E+00
   1    8    6     5     4    2.5778E+00  5.3423E-01   2.0435E+00  0.000E+00  0.000E+00  0.000E+00  1.04665E+03  4.022E-01  6.281E+00  1.570E-01  1.134E+00
   1    9    6     6     1    2.0435E+00  1.9117E+00   1.3183E-01  0.000E+00  0.000E+00  0.000E+00  1.04291E+03  1.862E-01  1.200E+01  6.000E-01  1.062E+00
   1   10    7     6     2    1.3183E-01  1.3183E-01   0.0000E+00  0.000E+00  0.000E+00  0.000E+00  1.03819E+03  1.181E-02  1.200E+01  6.000E-01  1.004E+00
   1   11    7     6     3    0.0000E+00  0.0000E+00   0.0000E+00  0.000E+00  0.000E+00  0.000E+00  1.03364E+03  0.000E+00  1.200E+01  6.000E-01  1.000E+00
   1   12    7     6     4    0.0000E+00  0.0000E+00   0.0000E+00  0.000E+00  0.000E+00  0.000E+00  1.02909E+03  0.000E+00  1.200E+01  6.000E-01  4.159E-01
   1   13    7     6     5    0.0000E+00 -7.8585E-01   7.8585E-01  0.000E+00  0.000E+00  0.000E+00  1.02591E+03  0.000E+00  1.200E+01  2.400E-01 -1.091E+00
   1   14    9     7     1    1.5000E+02  2.1865E+00   1.4781E+02  0.000E+00  0.000E+00  0.000E+00  1.03987E+03  2.285E+00  5.528E+01  5.592E+00  1.303E-01
   1   13    8     7     2    1.4781E+02  3.2090E+00   1.4460E+02  0.000E+00  0.000E+00  0.000E+00  1.03477E+03  2.271E+00  5.522E+01  6.143E+00  1.741E-01
   1   13    7     7     3    1.4460E+02  2.7382E+00   1.4187E+02  0.000E+00  0.000E+00  0.000E+00  1.02967E+03  2.255E+00  5.515E+01  5.577E+00  1.637E-01
   1   13    6     8     1    1.4265E+02  1.0439E+00   1.4161E+02  0.000E+00  0.000E+00  0.000E+00  1.02464E+03  2.760E+00  4.003E+01  4.079E+00  8.531E-02
   1   13    5     8     2    1.4161E+02 -1.7237E+00   1.4333E+02  0.000E+00  0.000E+00  0.000E+00  1.01839E+03  2.763E+00  4.006E+01  4.083E+00 -1.407E-01
   1   13    4     8     3    1.4333E+02 -3.4963E+00   1.4683E+02  0.000E+00  0.000E+00  0.000E+00  1.01216E+03  2.782E+00  4.034E+01  4.110E+00 -2.835E-01
   1   13    3     8     4    1.4683E+02 -3.8390E+00   1.5067E+02  0.000E+00  0.000E+00  0.000E+00  1.00593E+03  2.808E+00  4.072E+01  4.149E+00 -3.084E-01
   1   13    2     8     5    1.5067E+02 -1.9163E+00   1.5258E+02  0.000E+00  0.000E+00  0.000E+00  9.99703E+02  2.828E+00  4.101E+01  4.179E+00 -1.528E-01
   1   13    1     8     6    1.5258E+02 -4.0715E-01   1.5299E+02  0.000E+00  0.000E+00  0.000E+00  9.94711E+02  2.836E+00  4.113E+01  2.515E+00 -5.397E-02



1
  VOLUMETRIC BUDGET FOR ENTIRE MODEL AT END OF TIME STEP  1 IN STRESS PERIOD   1
  ------------------------------------------------------------------------------

     CUMULATIVE VOLUMES      L**3       RATES FOR THIS TIME STEP      L**3/T
     ------------------                 ------------------------

           IN:                                      IN:
           ---                                      ---
             STORAGE =           0.0000               STORAGE =           0.0000
       CONSTANT HEAD =           0.0000         CONSTANT HEAD =           0.0000
               WELLS =           0.0000                 WELLS =           0.0000
     HEAD DEP BOUNDS =      551734.6250       HEAD DEP BOUNDS =           0.2099
        UZF RECHARGE =    22272300.0000          UZF RECHARGE =           8.4750
               GW ET =           0.0000                 GW ET =           0.0000
     SURFACE LEAKAGE =           0.0000       SURFACE LEAKAGE =           0.0000
      STREAM LEAKAGE =   116098448.0000        STREAM LEAKAGE =          44.1775

            TOTAL IN =   138922480.0000              TOTAL IN =          52.8624

          OUT:                                     OUT:
          ----                                     ----
             STORAGE =           0.0000               STORAGE =           0.0000
       CONSTANT HEAD =           0.0000         CONSTANT HEAD =           0.0000
               WELLS =    52560000.0000                 WELLS =          20.0000
     HEAD DEP BOUNDS =      686392.1250       HEAD DEP BOUNDS =           0.2612
        UZF RECHARGE =           0.0000          UZF RECHARGE =           0.0000
               GW ET =    53701100.0000                 GW ET =          20.4342
     SURFACE LEAKAGE =           0.0000       SURFACE LEAKAGE =           0.0000
      STREAM LEAKAGE =    31978428.0000        STREAM LEAKAGE =          12.1684

           TOTAL OUT =   138925920.0000             TOTAL OUT =          52.8637

            IN - OUT =       -3440.0000              IN - OUT =      -1.3084E-03

 PERCENT DISCREPANCY =           0.00     PERCENT DISCREPANCY =           0.00






          TIME SUMMARY AT END OF TIME STEP   1 IN STRESS PERIOD    1
                    SECONDS     MINUTES      HOURS       DAYS        YEARS
                    -----------------------------------------------------------
   TIME STEP LENGTH 2.62800E+06  43800.      730.00      30.417     8.32763E-02
 STRESS PERIOD TIME 2.62800E+06  43800.      730.00      30.417     8.32763E-02
         TOTAL TIME 2.62800E+06  43800.      730.00      30.417     8.32763E-02
1
1
                            STRESS PERIOD NO.    2, LENGTH =   2628000.    
                            -----------------------------------------------

                              NUMBER OF TIME STEPS =    15

                               MULTIPLIER FOR DELT =     1.100

                            INITIAL TIME STEP SIZE =   82713.07    

 WELL NO.  LAYER   ROW   COL   STRESS RATE         
 --------------------------------------------------
      1      1      6      4      -2.000    
      2      1      6      5      -2.000    
      3      1      7      4      -2.000    
      4      1      7      5      -2.000    
      5      1      8      4      -2.000    
      6      1      8      5      -2.000    
      7      1      9      4      -2.000    
      8      1      9      5      -2.000    
      9      1     10      4      -2.000    
     10      1     10      5      -2.000    

     10 WELLS

 REUSING NON-PARAMETER GHB CELLS FROM LAST STRESS PERIOD

      2 GHB CELLS

 REUSING STREAM SEGMENT DATA FROM LAST STRESS PERIOD



            AREAL INFILTRATION RATE
 READING ON UNIT   19 WITH FORMAT: (10F4.0)            

            1           2           3           4           5           6           7           8           9          10
 ........................................................................................................................
   1   8.0000E-09  1.6000E-08   0.000       0.000       0.000       0.000       0.000       0.000       0.000       0.000    
   2   1.6000E-08  8.0000E-09  1.6000E-08   0.000       0.000      6.4000E-08  6.4000E-08  4.0000E-08   0.000       0.000    
   3    0.000      4.0000E-08  8.0000E-09  8.0000E-09  6.4000E-08  6.4000E-08  4.0000E-08  4.0000E-08   0.000       0.000    
   4   6.4000E-08  4.0000E-08  8.0000E-09  8.0000E-09  8.0000E-09  8.0000E-09  8.0000E-09  8.0000E-09  1.6000E-08   0.000    
   5   6.4000E-08  4.0000E-08  8.0000E-09  8.0000E-09  8.0000E-09  8.0000E-09  8.0000E-09  8.0000E-09  8.0000E-09  8.0000E-09
   6   6.4000E-08  4.0000E-08  4.0000E-08  1.6000E-08  1.6000E-08  8.0000E-09  8.0000E-09  8.0000E-09  8.0000E-09  4.0000E-08
   7   6.4000E-08  4.0000E-08  4.0000E-08  1.6000E-08  1.6000E-08  8.0000E-09  8.0000E-09  1.6000E-08  1.6000E-08   0.000    
   8    0.000      4.0000E-08  4.0000E-08  1.6000E-08  1.6000E-08  8.0000E-09  8.0000E-09  1.6000E-08  4.0000E-08   0.000    
   9    0.000      4.0000E-08  4.0000E-08  1.6000E-08  1.6000E-08  8.0000E-09  8.0000E-09  1.6000E-08  4.0000E-08   0.000    
  10    0.000      4.0000E-08  4.0000E-08  1.6000E-08  1.6000E-08  8.0000E-09  8.0000E-09  1.6000E-08  4.0000E-08  6.4000E-08
  11    0.000      8.0000E-09  8.0000E-09  8.0000E-09  8.0000E-09  8.0000E-09  8.0000E-09  1.6000E-08  4.0000E-08   0.000    
  12   8.0000E-09  8.0000E-09  8.0000E-09  8.0000E-09  8.0000E-09  8.0000E-09  8.0000E-09  8.0000E-09  1.6000E-08   0.000    
  13   8.0000E-09  8.0000E-09  1.6000E-08  1.6000E-08  1.6000E-08  1.6000E-08  1.6000E-08  8.0000E-09  8.0000E-09   0.000    
  14    0.000      1.6000E-08  4.0000E-08  4.0000E-08  4.0000E-08  4.0000E-08  4.0000E-08  1.6000E-08  8.0000E-09   0.000    
  15    0.000       0.000      6.4000E-08  6.4000E-08  6.4000E-08  6.4000E-08   0.000       0.000       0.000       0.000    

                  ET RATE =  5.000000E-08

 USING ET EXTINCTION DEPTH FROM PREVIOUS STRESS PERIOD. CURRENT PERIOD IS:       2

 USING EXTINCTION WATER CONTENT FROM PREVIOUS STRESS PERIOD. CURRENT PERIOD IS:       2
 
 SOLVING FOR HEAD 

     6 ITERATIONS FOR TIME STEP   1 IN STRESS PERIOD    2

 MAXIMUM HEAD CHANGE FOR EACH ITERATION:

    HEAD CHANGE   HEAD CHANGE   HEAD CHANGE   HEAD CHANGE   HEAD CHANGE
  LAYER,ROW,COL LAYER,ROW,COL LAYER,ROW,COL LAYER,ROW,COL LAYER,ROW,COL
 ----------------------------------------------------------------------
     0.8135E-02    0.3254E-02    0.1311E-02    0.5409E-03    0.2078E-03
  (  1,  3,  5) (  1,  3,  5) (  1,  3,  5) (  1,  3,  6) (  1,  3,  6)
     0.9147E-04
  (  1,  3,  5)


 OUTPUT CONTROL WAS SPECIFIED FOR A NONEXISTENT TIME STEP
 OR OUTPUT CONTROL DATA ARE NOT ENTERED IN ASCENDING ORDER
 OUTPUT CONTROL STRESS PERIOD    1   TIME STEP   5
 MODEL STRESS PERIOD    2   TIME STEP   1
 APPLYING THE SPECIFIED OUTPUT CONTROL TO THE CURRENT TIME STEP

 OUTPUT CONTROL FOR STRESS PERIOD    2   TIME STEP   1
    PRINT BUDGET
    SAVE BUDGET

            WELLS   PERIOD    2   STEP   1
 WELL      1   LAYER   1   ROW     6   COL     4   RATE    -2.00000    
 WELL      2   LAYER   1   ROW     6   COL     5   RATE    -2.00000    
 WELL      3   LAYER   1   ROW     7   COL     4   RATE    -2.00000    
 WELL      4   LAYER   1   ROW     7   COL     5   RATE    -2.00000    
 WELL      5   LAYER   1   ROW     8   COL     4   RATE    -2.00000    
 WELL      6   LAYER   1   ROW     8   COL     5   RATE    -2.00000    
 WELL      7   LAYER   1   ROW     9   COL     4   RATE    -2.00000    
 WELL      8   LAYER   1   ROW     9   COL     5   RATE    -2.00000    
 WELL      9   LAYER   1   ROW    10   COL     4   RATE    -2.00000    
 WELL     10   LAYER   1   ROW    10   COL     5   RATE    -2.00000    

  HEAD DEP BOUNDS   PERIOD    2   STEP   1
 BOUNDARY      1   LAYER   1   ROW    13   COL     1   RATE   -0.261269    
 BOUNDARY      2   LAYER   1   ROW    14   COL     9   RATE    0.209783    
 UBDSV3 SAVING "           GW ET" ON UNIT  61 AT TIME STEP  1, STRESS PERIOD   2
 UBDSV3 SAVING "    UZF INFILTR." ON UNIT  61 AT TIME STEP  1, STRESS PERIOD   2
 UBDSV3 SAVING "    UZF RECHARGE" ON UNIT  61 AT TIME STEP  1, STRESS PERIOD   2
 UBDSV3 SAVING " SURFACE LEAKAGE" ON UNIT  61 AT TIME STEP  1, STRESS PERIOD   2


UNSATURATED ZONE PACKAGE VOLUMETRIC BUDGET FOR  TIME STEP    1 STRESS PERIOD    2
  ------------------------------------------------------------------------------



     CUMULATIVE VOLUMES      L**3       RATES FOR THIS TIME STEP      L**3/T
     ------------------                 ------------------------

           IN:                                      IN:
           ---                                      ---
        INFILTRATION =    27880245.6161          INFILTRATION =          67.8000

          OUT:                                     OUT:
          ----                                     ----
              UZF ET =    10303219.2455                UZF ET =         124.5658
        UZF RECHARGE =    23074548.9392          UZF RECHARGE =           9.6992

            IN - OUT =    -5497522.5686              IN - OUT =         -66.4650

          STORAGE:                                 STORAGE:
          --------                                 --------
      STORAGE CHANGE =    -5496407.6049        STORAGE CHANGE =         -66.4515

 PERCENT DISCREPANCY IS DIFFERENCE BETWEEN IN-OUT MINUS CHANGE IN STORAGE
 DIVIDED BY THE AVERAGE OF IN AND OUT TIMES 100

 PERCENT DISCREPANCY =           0.00     PERCENT DISCREPANCY =          -0.01









 STREAM LISTING     PERIOD      2   STEP        1

 LAYER ROW COL. STREAM  RCH.  FLOW INTO     FLOW TO   FLOW OUT OF   OVRLND.     DIRECT     STREAM       STREAM     STREAM     STREAM   STREAMBED  STREAMBED
                SEG.NO.  NO.  STRM. RCH.    AQUIFER    STRM. RCH.    RUNOFF     PRECIP       ET          HEAD       DEPTH      WIDTH   CONDCTNC.   GRADIENT

   1    1    1     1     1    2.5000E+01  1.0761E+00   2.3924E+01  0.000E+00  0.000E+00  0.000E+00  1.09422E+03  1.172E+00  1.295E+01  5.830E-01  6.153E-01
   1    2    2     1     2    2.3924E+01  3.1481E+00   2.0776E+01  0.000E+00  0.000E+00  0.000E+00  1.08920E+03  1.139E+00  1.252E+01  8.762E-01  1.198E+00
   1    3    3     1     3    2.0776E+01  2.8946E+00   1.7881E+01  0.000E+00  0.000E+00  0.000E+00  1.08351E+03  1.089E+00  1.180E+01  7.079E-01  1.363E+00
   1    3    4     1     4    1.7881E+01  2.4582E+00   1.5423E+01  0.000E+00  0.000E+00  0.000E+00  1.07845E+03  1.043E+00  1.095E+01  6.080E-01  1.348E+00
   1    4    5     2     1    5.4230E+00  2.6581E+00   2.7649E+00  0.000E+00  0.000E+00  0.000E+00  1.07234E+03  4.078E-01  1.200E+01  7.800E-01  1.136E+00
   1    5    6     2     2    2.7649E+00  1.9490E+00   8.1597E-01  0.000E+00  0.000E+00  0.000E+00  1.06676E+03  2.483E-01  1.200E+01  6.000E-01  1.083E+00
   1    6    6     2     3    8.1597E-01  8.1597E-01   0.0000E+00  0.000E+00  0.000E+00  0.000E+00  1.06183E+03  3.486E-02  1.200E+01  6.000E-01  1.012E+00
   1    7    6     2     4    0.0000E+00  0.0000E+00   0.0000E+00  0.000E+00  0.000E+00  0.000E+00  1.05708E+03  0.000E+00  1.200E+01  6.000E-01  1.000E+00
   1    8    6     2     5    0.0000E+00  0.0000E+00   0.0000E+00  0.000E+00  0.000E+00  0.000E+00  1.05236E+03  0.000E+00  1.200E+01  6.000E-01  1.000E+00
   1    3    5     3     1    1.0000E+01  2.8252E+00   7.1748E+00  0.000E+00  0.000E+00  0.000E+00  1.07555E+03  1.909E+00  9.636E+00  7.227E-01  1.955E+00
   1    3    6     3     2    7.1748E+00  2.2743E+00   4.9006E+00  0.000E+00  0.000E+00  0.000E+00  1.07264E+03  1.727E+00  8.909E+00  6.682E-01  1.702E+00
   1    3    7     3     3    4.9006E+00  1.1573E+00   3.7433E+00  0.000E+00  0.000E+00  0.000E+00  1.06987E+03  1.555E+00  8.218E+00  5.547E-01  1.043E+00
   1    4    8     3     4    3.7433E+00  1.6802E+00   2.0631E+00  0.000E+00  0.000E+00  0.000E+00  1.06682E+03  1.364E+00  7.455E+00  6.709E-01  1.252E+00
   1    5    8     3     5    2.0631E+00  1.5790E+00   4.8414E-01  0.000E+00  0.000E+00  0.000E+00  1.06362E+03  1.164E+00  6.655E+00  4.991E-01  1.582E+00
   1    6    8     3     6    4.8414E-01  4.8414E-01   0.0000E+00  0.000E+00  0.000E+00  0.000E+00  1.06158E+03  0.000E+00  6.145E+00  1.844E-01  1.518E+00
   1    5   10     4     1    1.0000E+01  9.0525E-01   9.0947E+00  0.000E+00  0.000E+00  0.000E+00  1.07835E+03  6.210E-01  1.000E+01  2.500E-01  1.207E+00
   1    5    9     4     2    9.0947E+00  1.7835E+00   7.3113E+00  0.000E+00  0.000E+00  0.000E+00  1.07148E+03  5.670E-01  1.000E+01  5.000E-01  1.189E+00
   1    6    8     4     3    7.3113E+00  1.2257E+00   6.0855E+00  0.000E+00  0.000E+00  0.000E+00  1.06368E+03  5.021E-01  1.000E+01  3.500E-01  1.167E+00
   1    6    8     5     1    6.0855E+00  1.0308E+00   5.0547E+00  0.000E+00  0.000E+00  0.000E+00  1.05855E+03  5.472E-01  1.065E+01  4.260E-01  8.067E-01
   1    7    7     5     2    5.0547E+00  1.5862E+00   3.4685E+00  0.000E+00  0.000E+00  0.000E+00  1.05400E+03  4.983E-01  9.068E+00  4.534E-01  1.166E+00
   1    8    7     5     3    3.4685E+00  8.8919E-01   2.5793E+00  0.000E+00  0.000E+00  0.000E+00  1.04969E+03  4.419E-01  7.381E+00  2.583E-01  1.147E+00
   1    8    6     5     4    2.5793E+00  5.3444E-01   2.0449E+00  0.000E+00  0.000E+00  0.000E+00  1.04665E+03  4.023E-01  6.283E+00  1.571E-01  1.134E+00
   1    9    6     6     1    2.0449E+00  1.9118E+00   1.3313E-01  0.000E+00  0.000E+00  0.000E+00  1.04291E+03  1.863E-01  1.200E+01  6.000E-01  1.062E+00
   1   10    7     6     2    1.3313E-01  1.3313E-01   0.0000E+00  0.000E+00  0.000E+00  0.000E+00  1.03819E+03  1.188E-02  1.200E+01  6.000E-01  1.004E+00
   1   11    7     6     3    0.0000E+00  0.0000E+00   0.0000E+00  0.000E+00  0.000E+00  0.000E+00  1.03364E+03  0.000E+00  1.200E+01  6.000E-01  1.000E+00
   1   12    7     6     4    0.0000E+00  0.0000E+00   0.0000E+00  0.000E+00  0.000E+00  0.000E+00  1.02909E+03  0.000E+00  1.200E+01  6.000E-01  4.144E-01
   1   13    7     6     5    0.0000E+00 -7.8654E-01   7.8654E-01  0.000E+00  0.000E+00  0.000E+00  1.02591E+03  0.000E+00  1.200E+01  2.400E-01 -1.092E+00
   1   14    9     7     1    1.5000E+02  2.1630E+00   1.4784E+02  0.000E+00  0.000E+00  0.000E+00  1.03987E+03  2.286E+00  5.528E+01  5.592E+00  1.289E-01
   1   13    8     7     2    1.4784E+02  3.1878E+00   1.4465E+02  0.000E+00  0.000E+00  0.000E+00  1.03477E+03  2.271E+00  5.522E+01  6.143E+00  1.730E-01
   1   13    7     7     3    1.4465E+02  2.7237E+00   1.4193E+02  0.000E+00  0.000E+00  0.000E+00  1.02967E+03  2.255E+00  5.515E+01  5.577E+00  1.628E-01
   1   13    6     8     1    1.4271E+02  1.0347E+00   1.4168E+02  0.000E+00  0.000E+00  0.000E+00  1.02464E+03  2.761E+00  4.003E+01  4.080E+00  8.454E-02
   1   13    5     8     2    1.4168E+02 -1.7262E+00   1.4340E+02  0.000E+00  0.000E+00  0.000E+00  1.01839E+03  2.763E+00  4.007E+01  4.083E+00 -1.409E-01
   1   13    4     8     3    1.4340E+02 -3.4980E+00   1.4690E+02  0.000E+00  0.000E+00  0.000E+00  1.01216E+03  2.782E+00  4.034E+01  4.111E+00 -2.836E-01
   1   13    3     8     4    1.4690E+02 -3.8413E+00   1.5074E+02  0.000E+00  0.000E+00  0.000E+00  1.00593E+03  2.809E+00  4.072E+01  4.150E+00 -3.085E-01
   1   13    2     8     5    1.5074E+02 -1.9298E+00   1.5267E+02  0.000E+00  0.000E+00  0.000E+00  9.99704E+02  2.829E+00  4.102E+01  4.180E+00 -1.539E-01
   1   13    1     8     6    1.5267E+02 -4.1126E-01   1.5308E+02  0.000E+00  0.000E+00  0.000E+00  9.94712E+02  2.837E+00  4.114E+01  2.515E+00 -5.450E-02



1
  VOLUMETRIC BUDGET FOR ENTIRE MODEL AT END OF TIME STEP  1 IN STRESS PERIOD   2
  ------------------------------------------------------------------------------

     CUMULATIVE VOLUMES      L**3       RATES FOR THIS TIME STEP      L**3/T
     ------------------                 ------------------------

           IN:                                      IN:
           ---                                      ---
             STORAGE =        5188.1802               STORAGE =       6.2725E-02
       CONSTANT HEAD =           0.0000         CONSTANT HEAD =           0.0000
               WELLS =           0.0000                 WELLS =           0.0000
     HEAD DEP BOUNDS =      569086.4375       HEAD DEP BOUNDS =           0.2098
        UZF RECHARGE =    23074550.0000          UZF RECHARGE =           9.6992
               GW ET =           0.0000                 GW ET =           0.0000
     SURFACE LEAKAGE =           0.0000       SURFACE LEAKAGE =           0.0000
      STREAM LEAKAGE =   119746856.0000        STREAM LEAKAGE =          44.1092

            TOTAL IN =   143395680.0000              TOTAL IN =          54.0809

          OUT:                                     OUT:
          ----                                     ----
             STORAGE =      655510.5625               STORAGE =           7.9251
       CONSTANT HEAD =           0.0000         CONSTANT HEAD =           0.0000
               WELLS =    54214260.0000                 WELLS =          20.0000
     HEAD DEP BOUNDS =      708002.5000       HEAD DEP BOUNDS =           0.2613
        UZF RECHARGE =           0.0000          UZF RECHARGE =           0.0000
               GW ET =    54821068.0000                 GW ET =          13.5404
     SURFACE LEAKAGE =           0.0000       SURFACE LEAKAGE =           0.0000
      STREAM LEAKAGE =    32986956.0000        STREAM LEAKAGE =          12.1931

           TOTAL OUT =   143385792.0000             TOTAL OUT =          53.9199

            IN - OUT =        9888.0000              IN - OUT =           0.1611

 PERCENT DISCREPANCY =           0.01     PERCENT DISCREPANCY =           0.30






          TIME SUMMARY AT END OF TIME STEP   1 IN STRESS PERIOD    2
                    SECONDS     MINUTES      HOURS       DAYS        YEARS
                    -----------------------------------------------------------
   TIME STEP LENGTH  82713.      1378.6      22.976     0.95733     2.62102E-03
 STRESS PERIOD TIME  82713.      1378.6      22.976     0.95733     2.62102E-03
         TOTAL TIME 2.71071E+06  45179.      752.98      31.374     8.58973E-02
1
 
 SOLVING FOR HEAD 
     6 ITERATIONS FOR TIME STEP   2 IN STRESS PERIOD    2

 MAXIMUM HEAD CHANGE FOR EACH ITERATION:

    HEAD CHANGE   HEAD CHANGE   HEAD CHANGE   HEAD CHANGE   HEAD CHANGE
  LAYER,ROW,COL LAYER,ROW,COL LAYER,ROW,COL LAYER,ROW,COL LAYER,ROW,COL
 ----------------------------------------------------------------------
     0.8653E-02    0.3406E-02    0.1350E-02    0.4934E-03    0.2100E-03
  (  1,  3,  5) (  1,  3,  5) (  1,  3,  5) (  1,  3,  5) (  1,  3,  5)
     0.9773E-04
  (  1,  3,  5)


 OUTPUT CONTROL WAS SPECIFIED FOR A NONEXISTENT TIME STEP
 OR OUTPUT CONTROL DATA ARE NOT ENTERED IN ASCENDING ORDER
 OUTPUT CONTROL STRESS PERIOD    1   TIME STEP  10
 MODEL STRESS PERIOD    2   TIME STEP   2
 APPLYING THE SPECIFIED OUTPUT CONTROL TO THE CURRENT TIME STEP

 OUTPUT CONTROL FOR STRESS PERIOD    2   TIME STEP   2
    PRINT BUDGET
    SAVE BUDGET

            WELLS   PERIOD    2   STEP   2
 WELL      1   LAYER   1   ROW     6   COL     4   RATE    -2.00000    
 WELL      2   LAYER   1   ROW     6   COL     5   RATE    -2.00000    
 WELL      3   LAYER   1   ROW     7   COL     4   RATE    -2.00000    
 WELL      4   LAYER   1   ROW     7   COL     5   RATE    -2.00000    
 WELL      5   LAYER   1   ROW     8   COL     4   RATE    -2.00000    
 WELL      6   LAYER   1   ROW     8   COL     5   RATE    -2.00000    
 WELL      7   LAYER   1   ROW     9   COL     4   RATE    -2.00000    
 WELL      8   LAYER   1   ROW     9   COL     5   RATE    -2.00000    
 WELL      9   LAYER   1   ROW    10   COL     4   RATE    -2.00000    
 WELL     10   LAYER   1   ROW    10   COL     5   RATE    -2.00000    

  HEAD DEP BOUNDS   PERIOD    2   STEP   2
 BOUNDARY      1   LAYER   1   ROW    13   COL     1   RATE   -0.261359    
 BOUNDARY      2   LAYER   1   ROW    14   COL     9   RATE    0.209627    
 UBDSV3 SAVING "           GW ET" ON UNIT  61 AT TIME STEP  2, STRESS PERIOD   2
 UBDSV3 SAVING "    UZF INFILTR." ON UNIT  61 AT TIME STEP  2, STRESS PERIOD   2
 UBDSV3 SAVING "    UZF RECHARGE" ON UNIT  61 AT TIME STEP  2, STRESS PERIOD   2
 UBDSV3 SAVING " SURFACE LEAKAGE" ON UNIT  61 AT TIME STEP  2, STRESS PERIOD   2


UNSATURATED ZONE PACKAGE VOLUMETRIC BUDGET FOR  TIME STEP    2 STRESS PERIOD    2
  ------------------------------------------------------------------------------



     CUMULATIVE VOLUMES      L**3       RATES FOR THIS TIME STEP      L**3/T
     ------------------                 ------------------------

           IN:                                      IN:
           ---                                      ---
        INFILTRATION =    34048986.6488          INFILTRATION =          67.8000

          OUT:                                     OUT:
          ----                                     ----
              UZF ET =    21635534.6367                UZF ET =         124.5523
        UZF RECHARGE =    23949082.3160          UZF RECHARGE =           9.6119

            IN - OUT =   -11535630.3039              IN - OUT =         -66.3642

          STORAGE:                                 STORAGE:
          --------                                 --------
      STORAGE CHANGE =   -11533216.7457        STORAGE CHANGE =         -66.3499

 PERCENT DISCREPANCY IS DIFFERENCE BETWEEN IN-OUT MINUS CHANGE IN STORAGE
 DIVIDED BY THE AVERAGE OF IN AND OUT TIMES 100

 PERCENT DISCREPANCY =           0.00     PERCENT DISCREPANCY =          -0.01









 STREAM LISTING     PERIOD      2   STEP        2

 LAYER ROW COL. STREAM  RCH.  FLOW INTO     FLOW TO   FLOW OUT OF   OVRLND.     DIRECT     STREAM       STREAM     STREAM     STREAM   STREAMBED  STREAMBED
                SEG.NO.  NO.  STRM. RCH.    AQUIFER    STRM. RCH.    RUNOFF     PRECIP       ET          HEAD       DEPTH      WIDTH   CONDCTNC.   GRADIENT

   1    1    1     1     1    2.5000E+01  1.0738E+00   2.3926E+01  0.000E+00  0.000E+00  0.000E+00  1.09422E+03  1.172E+00  1.296E+01  5.830E-01  6.140E-01
   1    2    2     1     2    2.3926E+01  3.1431E+00   2.0783E+01  0.000E+00  0.000E+00  0.000E+00  1.08920E+03  1.139E+00  1.252E+01  8.763E-01  1.196E+00
   1    3    3     1     3    2.0783E+01  2.8952E+00   1.7888E+01  0.000E+00  0.000E+00  0.000E+00  1.08351E+03  1.089E+00  1.180E+01  7.080E-01  1.363E+00
   1    3    4     1     4    1.7888E+01  2.4587E+00   1.5429E+01  0.000E+00  0.000E+00  0.000E+00  1.07845E+03  1.043E+00  1.096E+01  6.081E-01  1.348E+00
   1    4    5     2     1    5.4291E+00  2.6583E+00   2.7708E+00  0.000E+00  0.000E+00  0.000E+00  1.07234E+03  4.081E-01  1.200E+01  7.800E-01  1.136E+00
   1    5    6     2     2    2.7708E+00  1.9492E+00   8.2155E-01  0.000E+00  0.000E+00  0.000E+00  1.06676E+03  2.487E-01  1.200E+01  6.000E-01  1.083E+00
   1    6    6     2     3    8.2155E-01  8.2155E-01   0.0000E+00  0.000E+00  0.000E+00  0.000E+00  1.06183E+03  3.500E-02  1.200E+01  6.000E-01  1.012E+00
   1    7    6     2     4    0.0000E+00  0.0000E+00   0.0000E+00  0.000E+00  0.000E+00  0.000E+00  1.05708E+03  0.000E+00  1.200E+01  6.000E-01  1.000E+00
   1    8    6     2     5    0.0000E+00  0.0000E+00   0.0000E+00  0.000E+00  0.000E+00  0.000E+00  1.05236E+03  0.000E+00  1.200E+01  6.000E-01  1.000E+00
   1    3    5     3     1    1.0000E+01  2.8252E+00   7.1748E+00  0.000E+00  0.000E+00  0.000E+00  1.07555E+03  1.909E+00  9.636E+00  7.227E-01  1.955E+00
   1    3    6     3     2    7.1748E+00  2.2656E+00   4.9092E+00  0.000E+00  0.000E+00  0.000E+00  1.07264E+03  1.727E+00  8.909E+00  6.682E-01  1.695E+00
   1    3    7     3     3    4.9092E+00  1.1510E+00   3.7582E+00  0.000E+00  0.000E+00  0.000E+00  1.06987E+03  1.555E+00  8.218E+00  5.547E-01  1.037E+00
   1    4    8     3     4    3.7582E+00  1.6728E+00   2.0854E+00  0.000E+00  0.000E+00  0.000E+00  1.06682E+03  1.364E+00  7.455E+00  6.709E-01  1.247E+00
   1    5    8     3     5    2.0854E+00  1.5790E+00   5.0646E-01  0.000E+00  0.000E+00  0.000E+00  1.06362E+03  1.164E+00  6.655E+00  4.991E-01  1.582E+00
   1    6    8     3     6    5.0646E-01  5.0646E-01   0.0000E+00  0.000E+00  0.000E+00  0.000E+00  1.06158E+03  0.000E+00  6.145E+00  1.844E-01  1.518E+00
   1    5   10     4     1    1.0000E+01  9.0525E-01   9.0947E+00  0.000E+00  0.000E+00  0.000E+00  1.07835E+03  6.210E-01  1.000E+01  2.500E-01  1.207E+00
   1    5    9     4     2    9.0947E+00  1.7835E+00   7.3113E+00  0.000E+00  0.000E+00  0.000E+00  1.07148E+03  5.670E-01  1.000E+01  5.000E-01  1.189E+00
   1    6    8     4     3    7.3113E+00  1.2257E+00   6.0855E+00  0.000E+00  0.000E+00  0.000E+00  1.06368E+03  5.021E-01  1.000E+01  3.500E-01  1.167E+00
   1    6    8     5     1    6.0855E+00  1.0281E+00   5.0574E+00  0.000E+00  0.000E+00  0.000E+00  1.05855E+03  5.473E-01  1.065E+01  4.260E-01  8.044E-01
   1    7    7     5     2    5.0574E+00  1.5868E+00   3.4707E+00  0.000E+00  0.000E+00  0.000E+00  1.05400E+03  4.984E-01  9.071E+00  4.536E-01  1.166E+00
   1    8    7     5     3    3.4707E+00  8.8955E-01   2.5811E+00  0.000E+00  0.000E+00  0.000E+00  1.04969E+03  4.420E-01  7.384E+00  2.584E-01  1.147E+00
   1    8    6     5     4    2.5811E+00  5.3468E-01   2.0464E+00  0.000E+00  0.000E+00  0.000E+00  1.04665E+03  4.024E-01  6.286E+00  1.572E-01  1.134E+00
   1    9    6     6     1    2.0464E+00  1.9119E+00   1.3456E-01  0.000E+00  0.000E+00  0.000E+00  1.04291E+03  1.864E-01  1.200E+01  6.000E-01  1.062E+00
   1   10    7     6     2    1.3456E-01  1.3456E-01   0.0000E+00  0.000E+00  0.000E+00  0.000E+00  1.03819E+03  1.195E-02  1.200E+01  6.000E-01  1.004E+00
   1   11    7     6     3    0.0000E+00  0.0000E+00   0.0000E+00  0.000E+00  0.000E+00  0.000E+00  1.03364E+03  0.000E+00  1.200E+01  6.000E-01  1.000E+00
   1   12    7     6     4    0.0000E+00  0.0000E+00   0.0000E+00  0.000E+00  0.000E+00  0.000E+00  1.02909E+03  0.000E+00  1.200E+01  6.000E-01  4.128E-01
   1   13    7     6     5    0.0000E+00 -7.8721E-01   7.8721E-01  0.000E+00  0.000E+00  0.000E+00  1.02591E+03  0.000E+00  1.200E+01  2.400E-01 -1.093E+00
   1   14    9     7     1    1.5000E+02  2.1405E+00   1.4786E+02  0.000E+00  0.000E+00  0.000E+00  1.03987E+03  2.286E+00  5.529E+01  5.592E+00  1.276E-01
   1   13    8     7     2    1.4786E+02  3.1675E+00   1.4469E+02  0.000E+00  0.000E+00  0.000E+00  1.03477E+03  2.271E+00  5.522E+01  6.143E+00  1.719E-01
   1   13    7     7     3    1.4469E+02  2.7098E+00   1.4198E+02  0.000E+00  0.000E+00  0.000E+00  1.02967E+03  2.256E+00  5.515E+01  5.577E+00  1.620E-01
   1   13    6     8     1    1.4277E+02  1.0251E+00   1.4174E+02  0.000E+00  0.000E+00  0.000E+00  1.02464E+03  2.761E+00  4.004E+01  4.080E+00  8.375E-02
   1   13    5     8     2    1.4174E+02 -1.7294E+00   1.4347E+02  0.000E+00  0.000E+00  0.000E+00  1.01839E+03  2.764E+00  4.008E+01  4.084E+00 -1.411E-01
   1   13    4     8     3    1.4347E+02 -3.4997E+00   1.4697E+02  0.000E+00  0.000E+00  0.000E+00  1.01216E+03  2.783E+00  4.035E+01  4.112E+00 -2.837E-01
   1   13    3     8     4    1.4697E+02 -3.8444E+00   1.5082E+02  0.000E+00  0.000E+00  0.000E+00  1.00593E+03  2.809E+00  4.073E+01  4.151E+00 -3.087E-01
   1   13    2     8     5    1.5082E+02 -1.9436E+00   1.5276E+02  0.000E+00  0.000E+00  0.000E+00  9.99704E+02  2.829E+00  4.103E+01  4.181E+00 -1.550E-01
   1   13    1     8     6    1.5276E+02 -4.1573E-01   1.5318E+02  0.000E+00  0.000E+00  0.000E+00  9.94713E+02  2.838E+00  4.115E+01  2.516E+00 -5.508E-02



1
  VOLUMETRIC BUDGET FOR ENTIRE MODEL AT END OF TIME STEP  2 IN STRESS PERIOD   2
  ------------------------------------------------------------------------------

     CUMULATIVE VOLUMES      L**3       RATES FOR THIS TIME STEP      L**3/T
     ------------------                 ------------------------

           IN:                                      IN:
           ---                                      ---
             STORAGE =        8530.5693               STORAGE =       3.6736E-02
       CONSTANT HEAD =           0.0000         CONSTANT HEAD =           0.0000
               WELLS =           0.0000                 WELLS =           0.0000
     HEAD DEP BOUNDS =      588159.2500       HEAD DEP BOUNDS =           0.2096
        UZF RECHARGE =    23949084.0000          UZF RECHARGE =           9.6119
               GW ET =           0.0000                 GW ET =           0.0000
     SURFACE LEAKAGE =           0.0000       SURFACE LEAKAGE =           0.0000
      STREAM LEAKAGE =   123754072.0000        STREAM LEAKAGE =          44.0429

            TOTAL IN =   148299840.0000              TOTAL IN =          53.9011

          OUT:                                     OUT:
          ----                                     ----
             STORAGE =     1363906.3750               STORAGE =           7.7859
       CONSTANT HEAD =           0.0000         CONSTANT HEAD =           0.0000
               WELLS =    56033948.0000                 WELLS =          20.0000
     HEAD DEP BOUNDS =      731782.1250       HEAD DEP BOUNDS =           0.2614
        UZF RECHARGE =           0.0000          UZF RECHARGE =           0.0000
               GW ET =    56054264.0000                 GW ET =          13.5539
     SURFACE LEAKAGE =           0.0000       SURFACE LEAKAGE =           0.0000
      STREAM LEAKAGE =    34098784.0000        STREAM LEAKAGE =          12.2200

           TOTAL OUT =   148282688.0000             TOTAL OUT =          53.8212

            IN - OUT =       17152.0000              IN - OUT =       7.9975E-02

 PERCENT DISCREPANCY =           0.01     PERCENT DISCREPANCY =           0.15






          TIME SUMMARY AT END OF TIME STEP   2 IN STRESS PERIOD    2
                    SECONDS     MINUTES      HOURS       DAYS        YEARS
                    -----------------------------------------------------------
   TIME STEP LENGTH  90984.      1516.4      25.273      1.0531     2.88312E-03
 STRESS PERIOD TIME 1.73697E+05  2895.0      48.249      2.0104     5.50414E-03
         TOTAL TIME 2.80170E+06  46695.      778.25      32.427     8.87804E-02
1
 
 SOLVING FOR HEAD 
     6 ITERATIONS FOR TIME STEP   3 IN STRESS PERIOD    2

 MAXIMUM HEAD CHANGE FOR EACH ITERATION:

    HEAD CHANGE   HEAD CHANGE   HEAD CHANGE   HEAD CHANGE   HEAD CHANGE
  LAYER,ROW,COL LAYER,ROW,COL LAYER,ROW,COL LAYER,ROW,COL LAYER,ROW,COL
 ----------------------------------------------------------------------
     0.9176E-02    0.3568E-02    0.1388E-02    0.5228E-03    0.2265E-03
  (  1, 12,  8) (  1,  3,  5) (  1,  3,  5) (  1,  3,  5) (  1,  3,  5)
     0.9114E-04
  (  1,  3,  6)


 OUTPUT CONTROL WAS SPECIFIED FOR A NONEXISTENT TIME STEP
 OR OUTPUT CONTROL DATA ARE NOT ENTERED IN ASCENDING ORDER
 OUTPUT CONTROL STRESS PERIOD    1   TIME STEP  15
 MODEL STRESS PERIOD    2   TIME STEP   3
 APPLYING THE SPECIFIED OUTPUT CONTROL TO THE CURRENT TIME STEP

 OUTPUT CONTROL FOR STRESS PERIOD    2   TIME STEP   3
    PRINT BUDGET
    PRINT HEAD FOR ALL LAYERS
    SAVE HEAD FOR ALL LAYERS
    SAVE BUDGET

            WELLS   PERIOD    2   STEP   3
 WELL      1   LAYER   1   ROW     6   COL     4   RATE    -2.00000    
 WELL      2   LAYER   1   ROW     6   COL     5   RATE    -2.00000    
 WELL      3   LAYER   1   ROW     7   COL     4   RATE    -2.00000    
 WELL      4   LAYER   1   ROW     7   COL     5   RATE    -2.00000    
 WELL      5   LAYER   1   ROW     8   COL     4   RATE    -2.00000    
 WELL      6   LAYER   1   ROW     8   COL     5   RATE    -2.00000    
 WELL      7   LAYER   1   ROW     9   COL     4   RATE    -2.00000    
 WELL      8   LAYER   1   ROW     9   COL     5   RATE    -2.00000    
 WELL      9   LAYER   1   ROW    10   COL     4   RATE    -2.00000    
 WELL     10   LAYER   1   ROW    10   COL     5   RATE    -2.00000    

  HEAD DEP BOUNDS   PERIOD    2   STEP   3
 BOUNDARY      1   LAYER   1   ROW    13   COL     1   RATE   -0.261450    
 BOUNDARY      2   LAYER   1   ROW    14   COL     9   RATE    0.209475    
 UBDSV3 SAVING "           GW ET" ON UNIT  61 AT TIME STEP  3, STRESS PERIOD   2
 UBDSV3 SAVING "    UZF INFILTR." ON UNIT  61 AT TIME STEP  3, STRESS PERIOD   2
 UBDSV3 SAVING "    UZF RECHARGE" ON UNIT  61 AT TIME STEP  3, STRESS PERIOD   2
 UBDSV3 SAVING " SURFACE LEAKAGE" ON UNIT  61 AT TIME STEP  3, STRESS PERIOD   2


UNSATURATED ZONE PACKAGE VOLUMETRIC BUDGET FOR  TIME STEP    3 STRESS PERIOD    2
  ------------------------------------------------------------------------------



     CUMULATIVE VOLUMES      L**3       RATES FOR THIS TIME STEP      L**3/T
     ------------------                 ------------------------

           IN:                                      IN:
           ---                                      ---
        INFILTRATION =    40834601.7319          INFILTRATION =          67.8000

          OUT:                                     OUT:
          ----                                     ----
              UZF ET =    34099653.0157                UZF ET =         124.5380
        UZF RECHARGE =    24898692.7783          UZF RECHARGE =           9.4882

            IN - OUT =   -18163744.0622              IN - OUT =         -66.2263

          STORAGE:                                 STORAGE:
          --------                                 --------
      STORAGE CHANGE =   -18159835.7397        STORAGE CHANGE =         -66.2114

 PERCENT DISCREPANCY IS DIFFERENCE BETWEEN IN-OUT MINUS CHANGE IN STORAGE
 DIVIDED BY THE AVERAGE OF IN AND OUT TIMES 100

 PERCENT DISCREPANCY =           0.00     PERCENT DISCREPANCY =          -0.01









 STREAM LISTING     PERIOD      2   STEP        3

 LAYER ROW COL. STREAM  RCH.  FLOW INTO     FLOW TO   FLOW OUT OF   OVRLND.     DIRECT     STREAM       STREAM     STREAM     STREAM   STREAMBED  STREAMBED
                SEG.NO.  NO.  STRM. RCH.    AQUIFER    STRM. RCH.    RUNOFF     PRECIP       ET          HEAD       DEPTH      WIDTH   CONDCTNC.   GRADIENT

   1    1    1     1     1    2.5000E+01  1.0714E+00   2.3929E+01  0.000E+00  0.000E+00  0.000E+00  1.09422E+03  1.172E+00  1.296E+01  5.830E-01  6.126E-01
   1    2    2     1     2    2.3929E+01  3.1380E+00   2.0791E+01  0.000E+00  0.000E+00  0.000E+00  1.08920E+03  1.139E+00  1.252E+01  8.764E-01  1.194E+00
   1    3    3     1     3    2.0791E+01  2.8958E+00   1.7895E+01  0.000E+00  0.000E+00  0.000E+00  1.08351E+03  1.089E+00  1.180E+01  7.081E-01  1.363E+00
   1    3    4     1     4    1.7895E+01  2.4593E+00   1.5435E+01  0.000E+00  0.000E+00  0.000E+00  1.07845E+03  1.043E+00  1.096E+01  6.082E-01  1.348E+00
   1    4    5     2     1    5.4354E+00  2.6586E+00   2.7768E+00  0.000E+00  0.000E+00  0.000E+00  1.07234E+03  4.085E-01  1.200E+01  7.800E-01  1.136E+00
   1    5    6     2     2    2.7768E+00  1.9495E+00   8.2726E-01  0.000E+00  0.000E+00  0.000E+00  1.06676E+03  2.492E-01  1.200E+01  6.000E-01  1.083E+00
   1    6    6     2     3    8.2726E-01  8.2726E-01   0.0000E+00  0.000E+00  0.000E+00  0.000E+00  1.06183E+03  3.515E-02  1.200E+01  6.000E-01  1.012E+00
   1    7    6     2     4    0.0000E+00  0.0000E+00   0.0000E+00  0.000E+00  0.000E+00  0.000E+00  1.05708E+03  0.000E+00  1.200E+01  6.000E-01  1.000E+00
   1    8    6     2     5    0.0000E+00  0.0000E+00   0.0000E+00  0.000E+00  0.000E+00  0.000E+00  1.05236E+03  0.000E+00  1.200E+01  6.000E-01  1.000E+00
   1    3    5     3     1    1.0000E+01  2.8252E+00   7.1748E+00  0.000E+00  0.000E+00  0.000E+00  1.07555E+03  1.909E+00  9.636E+00  7.227E-01  1.955E+00
   1    3    6     3     2    7.1748E+00  2.2567E+00   4.9181E+00  0.000E+00  0.000E+00  0.000E+00  1.07264E+03  1.727E+00  8.909E+00  6.682E-01  1.689E+00
   1    3    7     3     3    4.9181E+00  1.1445E+00   3.7735E+00  0.000E+00  0.000E+00  0.000E+00  1.06987E+03  1.555E+00  8.218E+00  5.547E-01  1.032E+00
   1    4    8     3     4    3.7735E+00  1.6653E+00   2.1083E+00  0.000E+00  0.000E+00  0.000E+00  1.06682E+03  1.364E+00  7.455E+00  6.709E-01  1.241E+00
   1    5    8     3     5    2.1083E+00  1.5790E+00   5.2930E-01  0.000E+00  0.000E+00  0.000E+00  1.06362E+03  1.164E+00  6.655E+00  4.991E-01  1.582E+00
   1    6    8     3     6    5.2930E-01  5.2930E-01   0.0000E+00  0.000E+00  0.000E+00  0.000E+00  1.06158E+03  0.000E+00  6.145E+00  1.844E-01  1.518E+00
   1    5   10     4     1    1.0000E+01  9.0525E-01   9.0947E+00  0.000E+00  0.000E+00  0.000E+00  1.07835E+03  6.210E-01  1.000E+01  2.500E-01  1.207E+00
   1    5    9     4     2    9.0947E+00  1.7835E+00   7.3113E+00  0.000E+00  0.000E+00  0.000E+00  1.07148E+03  5.670E-01  1.000E+01  5.000E-01  1.189E+00
   1    6    8     4     3    7.3113E+00  1.2257E+00   6.0855E+00  0.000E+00  0.000E+00  0.000E+00  1.06368E+03  5.021E-01  1.000E+01  3.500E-01  1.167E+00
   1    6    8     5     1    6.0855E+00  1.0251E+00   5.0604E+00  0.000E+00  0.000E+00  0.000E+00  1.05855E+03  5.473E-01  1.065E+01  4.261E-01  8.020E-01
   1    7    7     5     2    5.0604E+00  1.5874E+00   3.4730E+00  0.000E+00  0.000E+00  0.000E+00  1.05400E+03  4.985E-01  9.075E+00  4.537E-01  1.166E+00
   1    8    7     5     3    3.4730E+00  8.8996E-01   2.5830E+00  0.000E+00  0.000E+00  0.000E+00  1.04969E+03  4.421E-01  7.387E+00  2.586E-01  1.147E+00
   1    8    6     5     4    2.5830E+00  5.3495E-01   2.0481E+00  0.000E+00  0.000E+00  0.000E+00  1.04665E+03  4.025E-01  6.289E+00  1.572E-01  1.134E+00
   1    9    6     6     1    2.0481E+00  1.9120E+00   1.3613E-01  0.000E+00  0.000E+00  0.000E+00  1.04291E+03  1.866E-01  1.200E+01  6.000E-01  1.062E+00
   1   10    7     6     2    1.3613E-01  1.3613E-01   0.0000E+00  0.000E+00  0.000E+00  0.000E+00  1.03819E+03  1.204E-02  1.200E+01  6.000E-01  1.004E+00
   1   11    7     6     3    0.0000E+00  0.0000E+00   0.0000E+00  0.000E+00  0.000E+00  0.000E+00  1.03364E+03  0.000E+00  1.200E+01  6.000E-01  1.000E+00
   1   12    7     6     4    0.0000E+00  0.0000E+00   0.0000E+00  0.000E+00  0.000E+00  0.000E+00  1.02909E+03  0.000E+00  1.200E+01  6.000E-01  4.110E-01
   1   13    7     6     5    0.0000E+00 -7.8788E-01   7.8788E-01  0.000E+00  0.000E+00  0.000E+00  1.02591E+03  0.000E+00  1.200E+01  2.400E-01 -1.094E+00
   1   14    9     7     1    1.5000E+02  2.1184E+00   1.4788E+02  0.000E+00  0.000E+00  0.000E+00  1.03987E+03  2.286E+00  5.529E+01  5.592E+00  1.263E-01
   1   13    8     7     2    1.4788E+02  3.1475E+00   1.4473E+02  0.000E+00  0.000E+00  0.000E+00  1.03477E+03  2.272E+00  5.522E+01  6.144E+00  1.708E-01
   1   13    7     7     3    1.4473E+02  2.6957E+00   1.4204E+02  0.000E+00  0.000E+00  0.000E+00  1.02968E+03  2.256E+00  5.515E+01  5.577E+00  1.611E-01
   1   13    6     8     1    1.4283E+02  1.0156E+00   1.4181E+02  0.000E+00  0.000E+00  0.000E+00  1.02464E+03  2.762E+00  4.005E+01  4.081E+00  8.296E-02
   1   13    5     8     2    1.4181E+02 -1.7331E+00   1.4354E+02  0.000E+00  0.000E+00  0.000E+00  1.01839E+03  2.764E+00  4.008E+01  4.085E+00 -1.414E-01
   1   13    4     8     3    1.4354E+02 -3.5020E+00   1.4705E+02  0.000E+00  0.000E+00  0.000E+00  1.01216E+03  2.783E+00  4.036E+01  4.113E+00 -2.838E-01
   1   13    3     8     4    1.4705E+02 -3.8472E+00   1.5089E+02  0.000E+00  0.000E+00  0.000E+00  1.00593E+03  2.810E+00  4.074E+01  4.151E+00 -3.089E-01
   1   13    2     8     5    1.5089E+02 -1.9569E+00   1.5285E+02  0.000E+00  0.000E+00  0.000E+00  9.99705E+02  2.830E+00  4.103E+01  4.182E+00 -1.560E-01
   1   13    1     8     6    1.5285E+02 -4.2022E-01   1.5327E+02  0.000E+00  0.000E+00  0.000E+00  9.94713E+02  2.838E+00  4.115E+01  2.516E+00 -5.567E-02



1
              HEAD IN LAYER   1 AT END OF TIME STEP   3 IN STRESS PERIOD    2
  ---------------------------------------------------------------------------

           1       2       3       4       5       6       7       8       9      10
 ...................................................................................
   1  1092.38 1088.63 6999.00 6999.00 6999.00 6999.00 6999.00 6999.00 6999.00 6999.00
   2  1089.24 1085.62 1078.96 6999.00 6999.00 1071.60 1070.86 1070.38 6999.00 6999.00
   3  6999.00 1077.28 1074.00 1069.65 1070.00 1069.26 1067.81 1067.80 6999.00 6999.00
   4  1067.82 1068.30 1066.38 1062.66 1061.49 1060.29 1061.15 1064.34 1063.70 6999.00
   5  1063.67 1061.22 1058.40 1056.11 1055.88 1056.66 1056.75 1059.02 1062.67 1065.22
   6  1058.99 1055.26 1051.82 1049.36 1049.78 1051.90 1053.54 1056.14 1059.18 1063.61
   7  1055.33 1049.58 1045.87 1043.49 1044.29 1046.82 1049.65 1052.33 1054.05 6999.00
   8  6999.00 1042.24 1039.80 1037.85 1038.93 1041.67 1043.84 1046.89 1049.11 6999.00
   9  6999.00 1035.30 1033.84 1032.56 1033.95 1036.84 1038.03 1040.43 1043.70 6999.00
  10  6999.00 1028.29 1027.98 1027.92 1029.55 1031.98 1033.33 1035.83 1039.94 1044.37
  11  6999.00 1019.58 1020.94 1024.00 1026.08 1028.32 1029.88 1032.57 1036.22 6999.00
  12  1001.15 1008.78 1013.89 1018.58 1022.19 1025.44 1027.86 1030.81 1034.76 6999.00
  13   994.88 1000.17 1006.86 1013.01 1018.81 1024.39 1029.19 1034.26 1036.35 6999.00
  14  6999.00 1005.81 1011.47 1016.19 1021.22 1026.05 1030.48 1035.34 1039.49 6999.00
  15  6999.00 6999.00 1018.83 1021.82 1025.56 1028.54 6999.00 6999.00 6999.00 6999.00

 HEAD WILL BE SAVED ON UNIT   58 AT END OF TIME STEP   3, STRESS PERIOD    2
1
  VOLUMETRIC BUDGET FOR ENTIRE MODEL AT END OF TIME STEP  3 IN STRESS PERIOD   2
  ------------------------------------------------------------------------------

     CUMULATIVE VOLUMES      L**3       RATES FOR THIS TIME STEP      L**3/T
     ------------------                 ------------------------

           IN:                                      IN:
           ---                                      ---
             STORAGE =       13776.5576               STORAGE =       5.2416E-02
       CONSTANT HEAD =           0.0000         CONSTANT HEAD =           0.0000
               WELLS =           0.0000                 WELLS =           0.0000
     HEAD DEP BOUNDS =      609124.0625       HEAD DEP BOUNDS =           0.2095
        UZF RECHARGE =    24898694.0000          UZF RECHARGE =           9.4882
               GW ET =           0.0000                 GW ET =           0.0000
     SURFACE LEAKAGE =           0.0000       SURFACE LEAKAGE =           0.0000
      STREAM LEAKAGE =   128155440.0000        STREAM LEAKAGE =          43.9772

            TOTAL IN =   153677040.0000              TOTAL IN =          53.7274

          OUT:                                     OUT:
          ----                                     ----
             STORAGE =     2112873.2500               STORAGE =           7.4835
       CONSTANT HEAD =           0.0000         CONSTANT HEAD =           0.0000
               WELLS =    58035604.0000                 WELLS =          20.0000
     HEAD DEP BOUNDS =      757948.7500       HEAD DEP BOUNDS =           0.2614
        UZF RECHARGE =           0.0000          UZF RECHARGE =           0.0000
               GW ET =    57412196.0000                 GW ET =          13.5681
     SURFACE LEAKAGE =           0.0000       SURFACE LEAKAGE =           0.0000
      STREAM LEAKAGE =    35324524.0000        STREAM LEAKAGE =          12.2473

           TOTAL OUT =   153643152.0000             TOTAL OUT =          53.5602

            IN - OUT =       33888.0000              IN - OUT =           0.1671

 PERCENT DISCREPANCY =           0.02     PERCENT DISCREPANCY =           0.31






          TIME SUMMARY AT END OF TIME STEP   3 IN STRESS PERIOD    2
                    SECONDS     MINUTES      HOURS       DAYS        YEARS
                    -----------------------------------------------------------
   TIME STEP LENGTH 1.00083E+05  1668.0      27.801      1.1584     3.17143E-03
 STRESS PERIOD TIME 2.73780E+05  4563.0      76.050      3.1688     8.67557E-03
         TOTAL TIME 2.90178E+06  48363.      806.05      33.585     9.19519E-02
1
 
 SOLVING FOR HEAD 
     5 ITERATIONS FOR TIME STEP   4 IN STRESS PERIOD    2

 MAXIMUM HEAD CHANGE FOR EACH ITERATION:

    HEAD CHANGE   HEAD CHANGE   HEAD CHANGE   HEAD CHANGE   HEAD CHANGE
  LAYER,ROW,COL LAYER,ROW,COL LAYER,ROW,COL LAYER,ROW,COL LAYER,ROW,COL
 ----------------------------------------------------------------------
     0.9782E-02    0.3617E-02    0.1462E-02    0.5619E-03    0.1794E-03
  (  1, 12,  8) (  1,  3,  5) (  1,  3,  5) (  1,  3,  5) (  1,  3,  5)


 OUTPUT CONTROL WAS SPECIFIED FOR A NONEXISTENT TIME STEP
 OR OUTPUT CONTROL DATA ARE NOT ENTERED IN ASCENDING ORDER
 OUTPUT CONTROL STRESS PERIOD    2   TIME STEP   1
 MODEL STRESS PERIOD    2   TIME STEP   4
 APPLYING THE SPECIFIED OUTPUT CONTROL TO THE CURRENT TIME STEP

 OUTPUT CONTROL FOR STRESS PERIOD    2   TIME STEP   4
    PRINT BUDGET
    SAVE BUDGET

            WELLS   PERIOD    2   STEP   4
 WELL      1   LAYER   1   ROW     6   COL     4   RATE    -2.00000    
 WELL      2   LAYER   1   ROW     6   COL     5   RATE    -2.00000    
 WELL      3   LAYER   1   ROW     7   COL     4   RATE    -2.00000    
 WELL      4   LAYER   1   ROW     7   COL     5   RATE    -2.00000    
 WELL      5   LAYER   1   ROW     8   COL     4   RATE    -2.00000    
 WELL      6   LAYER   1   ROW     8   COL     5   RATE    -2.00000    
 WELL      7   LAYER   1   ROW     9   COL     4   RATE    -2.00000    
 WELL      8   LAYER   1   ROW     9   COL     5   RATE    -2.00000    
 WELL      9   LAYER   1   ROW    10   COL     4   RATE    -2.00000    
 WELL     10   LAYER   1   ROW    10   COL     5   RATE    -2.00000    

  HEAD DEP BOUNDS   PERIOD    2   STEP   4
 BOUNDARY      1   LAYER   1   ROW    13   COL     1   RATE   -0.261549    
 BOUNDARY      2   LAYER   1   ROW    14   COL     9   RATE    0.209328    
 UBDSV3 SAVING "           GW ET" ON UNIT  61 AT TIME STEP  4, STRESS PERIOD   2
 UBDSV3 SAVING "    UZF INFILTR." ON UNIT  61 AT TIME STEP  4, STRESS PERIOD   2
 UBDSV3 SAVING "    UZF RECHARGE" ON UNIT  61 AT TIME STEP  4, STRESS PERIOD   2
 UBDSV3 SAVING " SURFACE LEAKAGE" ON UNIT  61 AT TIME STEP  4, STRESS PERIOD   2


UNSATURATED ZONE PACKAGE VOLUMETRIC BUDGET FOR  TIME STEP    4 STRESS PERIOD    2
  ------------------------------------------------------------------------------



     CUMULATIVE VOLUMES      L**3       RATES FOR THIS TIME STEP      L**3/T
     ------------------                 ------------------------

           IN:                                      IN:
           ---                                      ---
        INFILTRATION =    48298778.2703          INFILTRATION =          67.8000

          OUT:                                     OUT:
          ----                                     ----
              UZF ET =    47808538.8947                UZF ET =         124.5231
        UZF RECHARGE =    25933553.4857          UZF RECHARGE =           9.4000

            IN - OUT =   -25443314.1102              IN - OUT =         -66.1231

          STORAGE:                                 STORAGE:
          --------                                 --------
      STORAGE CHANGE =   -25437663.8724        STORAGE CHANGE =         -66.1073

 PERCENT DISCREPANCY IS DIFFERENCE BETWEEN IN-OUT MINUS CHANGE IN STORAGE
 DIVIDED BY THE AVERAGE OF IN AND OUT TIMES 100

 PERCENT DISCREPANCY =           0.00     PERCENT DISCREPANCY =          -0.01









 STREAM LISTING     PERIOD      2   STEP        4

 LAYER ROW COL. STREAM  RCH.  FLOW INTO     FLOW TO   FLOW OUT OF   OVRLND.     DIRECT     STREAM       STREAM     STREAM     STREAM   STREAMBED  STREAMBED
                SEG.NO.  NO.  STRM. RCH.    AQUIFER    STRM. RCH.    RUNOFF     PRECIP       ET          HEAD       DEPTH      WIDTH   CONDCTNC.   GRADIENT

   1    1    1     1     1    2.5000E+01  1.0688E+00   2.3931E+01  0.000E+00  0.000E+00  0.000E+00  1.09422E+03  1.172E+00  1.296E+01  5.830E-01  6.111E-01
   1    2    2     1     2    2.3931E+01  3.1327E+00   2.0799E+01  0.000E+00  0.000E+00  0.000E+00  1.08920E+03  1.139E+00  1.252E+01  8.765E-01  1.191E+00
   1    3    3     1     3    2.0799E+01  2.8965E+00   1.7902E+01  0.000E+00  0.000E+00  0.000E+00  1.08351E+03  1.090E+00  1.180E+01  7.083E-01  1.363E+00
   1    3    4     1     4    1.7902E+01  2.4599E+00   1.5442E+01  0.000E+00  0.000E+00  0.000E+00  1.07845E+03  1.044E+00  1.096E+01  6.083E-01  1.348E+00
   1    4    5     2     1    5.4422E+00  2.6589E+00   2.7832E+00  0.000E+00  0.000E+00  0.000E+00  1.07234E+03  4.089E-01  1.200E+01  7.800E-01  1.136E+00
   1    5    6     2     2    2.7832E+00  1.9499E+00   8.3337E-01  0.000E+00  0.000E+00  0.000E+00  1.06676E+03  2.498E-01  1.200E+01  6.000E-01  1.083E+00
   1    6    6     2     3    8.3337E-01  8.3337E-01   0.0000E+00  0.000E+00  0.000E+00  0.000E+00  1.06183E+03  3.531E-02  1.200E+01  6.000E-01  1.012E+00
   1    7    6     2     4    0.0000E+00  0.0000E+00   0.0000E+00  0.000E+00  0.000E+00  0.000E+00  1.05708E+03  0.000E+00  1.200E+01  6.000E-01  1.000E+00
   1    8    6     2     5    0.0000E+00  0.0000E+00   0.0000E+00  0.000E+00  0.000E+00  0.000E+00  1.05236E+03  0.000E+00  1.200E+01  6.000E-01  1.000E+00
   1    3    5     3     1    1.0000E+01  2.8252E+00   7.1748E+00  0.000E+00  0.000E+00  0.000E+00  1.07555E+03  1.909E+00  9.636E+00  7.227E-01  1.955E+00
   1    3    6     3     2    7.1748E+00  2.2480E+00   4.9268E+00  0.000E+00  0.000E+00  0.000E+00  1.07264E+03  1.727E+00  8.909E+00  6.682E-01  1.682E+00
   1    3    7     3     3    4.9268E+00  1.1381E+00   3.7887E+00  0.000E+00  0.000E+00  0.000E+00  1.06987E+03  1.555E+00  8.218E+00  5.547E-01  1.026E+00
   1    4    8     3     4    3.7887E+00  1.6575E+00   2.1313E+00  0.000E+00  0.000E+00  0.000E+00  1.06682E+03  1.364E+00  7.455E+00  6.709E-01  1.235E+00
   1    5    8     3     5    2.1313E+00  1.5790E+00   5.5228E-01  0.000E+00  0.000E+00  0.000E+00  1.06362E+03  1.164E+00  6.655E+00  4.991E-01  1.582E+00
   1    6    8     3     6    5.5228E-01  5.5228E-01   0.0000E+00  0.000E+00  0.000E+00  0.000E+00  1.06158E+03  0.000E+00  6.145E+00  1.844E-01  1.518E+00
   1    5   10     4     1    1.0000E+01  9.0525E-01   9.0947E+00  0.000E+00  0.000E+00  0.000E+00  1.07835E+03  6.210E-01  1.000E+01  2.500E-01  1.207E+00
   1    5    9     4     2    9.0947E+00  1.7835E+00   7.3113E+00  0.000E+00  0.000E+00  0.000E+00  1.07148E+03  5.670E-01  1.000E+01  5.000E-01  1.189E+00
   1    6    8     4     3    7.3113E+00  1.2257E+00   6.0855E+00  0.000E+00  0.000E+00  0.000E+00  1.06368E+03  5.021E-01  1.000E+01  3.500E-01  1.167E+00
   1    6    8     5     1    6.0855E+00  1.0217E+00   5.0638E+00  0.000E+00  0.000E+00  0.000E+00  1.05855E+03  5.474E-01  1.065E+01  4.262E-01  7.992E-01
   1    7    7     5     2    5.0638E+00  1.5881E+00   3.4757E+00  0.000E+00  0.000E+00  0.000E+00  1.05400E+03  4.986E-01  9.079E+00  4.539E-01  1.166E+00
   1    8    7     5     3    3.4757E+00  8.9042E-01   2.5853E+00  0.000E+00  0.000E+00  0.000E+00  1.04969E+03  4.422E-01  7.391E+00  2.587E-01  1.147E+00
   1    8    6     5     4    2.5853E+00  5.3525E-01   2.0500E+00  0.000E+00  0.000E+00  0.000E+00  1.04665E+03  4.026E-01  6.292E+00  1.573E-01  1.134E+00
   1    9    6     6     1    2.0500E+00  1.9121E+00   1.3794E-01  0.000E+00  0.000E+00  0.000E+00  1.04291E+03  1.868E-01  1.200E+01  6.000E-01  1.062E+00
   1   10    7     6     2    1.3794E-01  1.3794E-01   0.0000E+00  0.000E+00  0.000E+00  0.000E+00  1.03819E+03  1.213E-02  1.200E+01  6.000E-01  1.004E+00
   1   11    7     6     3    0.0000E+00  0.0000E+00   0.0000E+00  0.000E+00  0.000E+00  0.000E+00  1.03364E+03  0.000E+00  1.200E+01  6.000E-01  1.000E+00
   1   12    7     6     4    0.0000E+00  0.0000E+00   0.0000E+00  0.000E+00  0.000E+00  0.000E+00  1.02909E+03  0.000E+00  1.200E+01  6.000E-01  4.090E-01
   1   13    7     6     5    0.0000E+00 -7.8853E-01   7.8853E-01  0.000E+00  0.000E+00  0.000E+00  1.02591E+03  0.000E+00  1.200E+01  2.400E-01 -1.095E+00
   1   14    9     7     1    1.5000E+02  2.0971E+00   1.4790E+02  0.000E+00  0.000E+00  0.000E+00  1.03987E+03  2.286E+00  5.529E+01  5.592E+00  1.250E-01
   1   13    8     7     2    1.4790E+02  3.1280E+00   1.4477E+02  0.000E+00  0.000E+00  0.000E+00  1.03477E+03  2.272E+00  5.522E+01  6.144E+00  1.697E-01
   1   13    7     7     3    1.4477E+02  2.6821E+00   1.4209E+02  0.000E+00  0.000E+00  0.000E+00  1.02968E+03  2.256E+00  5.515E+01  5.577E+00  1.603E-01
   1   13    6     8     1    1.4288E+02  1.0056E+00   1.4188E+02  0.000E+00  0.000E+00  0.000E+00  1.02464E+03  2.762E+00  4.005E+01  4.082E+00  8.212E-02
   1   13    5     8     2    1.4188E+02 -1.7372E+00   1.4361E+02  0.000E+00  0.000E+00  0.000E+00  1.01839E+03  2.765E+00  4.009E+01  4.085E+00 -1.417E-01
   1   13    4     8     3    1.4361E+02 -3.5040E+00   1.4712E+02  0.000E+00  0.000E+00  0.000E+00  1.01216E+03  2.784E+00  4.037E+01  4.113E+00 -2.839E-01
   1   13    3     8     4    1.4712E+02 -3.8506E+00   1.5097E+02  0.000E+00  0.000E+00  0.000E+00  1.00594E+03  2.810E+00  4.075E+01  4.152E+00 -3.091E-01
   1   13    2     8     5    1.5097E+02 -1.9712E+00   1.5294E+02  0.000E+00  0.000E+00  0.000E+00  9.99706E+02  2.831E+00  4.104E+01  4.182E+00 -1.571E-01
   1   13    1     8     6    1.5294E+02 -4.2530E-01   1.5336E+02  0.000E+00  0.000E+00  0.000E+00  9.94714E+02  2.839E+00  4.116E+01  2.517E+00 -5.633E-02



1
  VOLUMETRIC BUDGET FOR ENTIRE MODEL AT END OF TIME STEP  4 IN STRESS PERIOD   2
  ------------------------------------------------------------------------------

     CUMULATIVE VOLUMES      L**3       RATES FOR THIS TIME STEP      L**3/T
     ------------------                 ------------------------

           IN:                                      IN:
           ---                                      ---
             STORAGE =       15120.7217               STORAGE =       1.2210E-02
       CONSTANT HEAD =           0.0000         CONSTANT HEAD =           0.0000
               WELLS =           0.0000                 WELLS =           0.0000
     HEAD DEP BOUNDS =      632169.1875       HEAD DEP BOUNDS =           0.2093
        UZF RECHARGE =    25933554.0000          UZF RECHARGE =           9.4000
               GW ET =           0.0000                 GW ET =           0.0000
     SURFACE LEAKAGE =           0.0000       SURFACE LEAKAGE =           0.0000
      STREAM LEAKAGE =   132989848.0000        STREAM LEAKAGE =          43.9128

            TOTAL IN =   159570688.0000              TOTAL IN =          53.5344

          OUT:                                     OUT:
          ----                                     ----
             STORAGE =     2927358.2500               STORAGE =           7.3983
       CONSTANT HEAD =           0.0000         CONSTANT HEAD =           0.0000
               WELLS =    60237428.0000                 WELLS =          20.0000
     HEAD DEP BOUNDS =      786742.9375       HEAD DEP BOUNDS =           0.2615
        UZF RECHARGE =           0.0000          UZF RECHARGE =           0.0000
               GW ET =    58907548.0000                 GW ET =          13.5829
     SURFACE LEAKAGE =           0.0000       SURFACE LEAKAGE =           0.0000
      STREAM LEAKAGE =    36676100.0000        STREAM LEAKAGE =          12.2769

           TOTAL OUT =   159535184.0000             TOTAL OUT =          53.5196

            IN - OUT =       35504.0000              IN - OUT =       1.4771E-02

 PERCENT DISCREPANCY =           0.02     PERCENT DISCREPANCY =           0.03






          TIME SUMMARY AT END OF TIME STEP   4 IN STRESS PERIOD    2
                    SECONDS     MINUTES      HOURS       DAYS        YEARS
                    -----------------------------------------------------------
   TIME STEP LENGTH 1.10091E+05  1834.9      30.581      1.2742     3.48858E-03
 STRESS PERIOD TIME 3.83871E+05  6397.9      106.63      4.4430     1.21641E-02
         TOTAL TIME 3.01187E+06  50198.      836.63      34.860     9.54404E-02
1
 
 SOLVING FOR HEAD 
     5 ITERATIONS FOR TIME STEP   5 IN STRESS PERIOD    2

 MAXIMUM HEAD CHANGE FOR EACH ITERATION:

    HEAD CHANGE   HEAD CHANGE   HEAD CHANGE   HEAD CHANGE   HEAD CHANGE
  LAYER,ROW,COL LAYER,ROW,COL LAYER,ROW,COL LAYER,ROW,COL LAYER,ROW,COL
 ----------------------------------------------------------------------
     0.1042E-01    0.3773E-02    0.1419E-02    0.5779E-03    0.1900E-03
  (  1, 12,  8) (  1,  3,  5) (  1,  3,  5) (  1,  3,  5) (  1,  3,  5)


 OUTPUT CONTROL FOR STRESS PERIOD    2   TIME STEP   5
    PRINT BUDGET
    SAVE BUDGET

            WELLS   PERIOD    2   STEP   5
 WELL      1   LAYER   1   ROW     6   COL     4   RATE    -2.00000    
 WELL      2   LAYER   1   ROW     6   COL     5   RATE    -2.00000    
 WELL      3   LAYER   1   ROW     7   COL     4   RATE    -2.00000    
 WELL      4   LAYER   1   ROW     7   COL     5   RATE    -2.00000    
 WELL      5   LAYER   1   ROW     8   COL     4   RATE    -2.00000    
 WELL      6   LAYER   1   ROW     8   COL     5   RATE    -2.00000    
 WELL      7   LAYER   1   ROW     9   COL     4   RATE    -2.00000    
 WELL      8   LAYER   1   ROW     9   COL     5   RATE    -2.00000    
 WELL      9   LAYER   1   ROW    10   COL     4   RATE    -2.00000    
 WELL     10   LAYER   1   ROW    10   COL     5   RATE    -2.00000    

  HEAD DEP BOUNDS   PERIOD    2   STEP   5
 BOUNDARY      1   LAYER   1   ROW    13   COL     1   RATE   -0.261647    
 BOUNDARY      2   LAYER   1   ROW    14   COL     9   RATE    0.209195    
 UBDSV3 SAVING "           GW ET" ON UNIT  61 AT TIME STEP  5, STRESS PERIOD   2
 UBDSV3 SAVING "    UZF INFILTR." ON UNIT  61 AT TIME STEP  5, STRESS PERIOD   2
 UBDSV3 SAVING "    UZF RECHARGE" ON UNIT  61 AT TIME STEP  5, STRESS PERIOD   2
 UBDSV3 SAVING " SURFACE LEAKAGE" ON UNIT  61 AT TIME STEP  5, STRESS PERIOD   2


UNSATURATED ZONE PACKAGE VOLUMETRIC BUDGET FOR  TIME STEP    5 STRESS PERIOD    2
  ------------------------------------------------------------------------------



     CUMULATIVE VOLUMES      L**3       RATES FOR THIS TIME STEP      L**3/T
     ------------------                 ------------------------

           IN:                                      IN:
           ---                                      ---
        INFILTRATION =    56509372.4095          INFILTRATION =          67.8000

          OUT:                                     OUT:
          ----                                     ----
              UZF ET =    62886397.1575                UZF ET =         124.5073
        UZF RECHARGE =    27054606.5602          UZF RECHARGE =           9.2572

            IN - OUT =   -33431631.3082              IN - OUT =         -65.9645

          STORAGE:                                 STORAGE:
          --------                                 --------
      STORAGE CHANGE =   -33423991.9313        STORAGE CHANGE =         -65.9481

 PERCENT DISCREPANCY IS DIFFERENCE BETWEEN IN-OUT MINUS CHANGE IN STORAGE
 DIVIDED BY THE AVERAGE OF IN AND OUT TIMES 100

 PERCENT DISCREPANCY =           0.00     PERCENT DISCREPANCY =          -0.01









 STREAM LISTING     PERIOD      2   STEP        5

 LAYER ROW COL. STREAM  RCH.  FLOW INTO     FLOW TO   FLOW OUT OF   OVRLND.     DIRECT     STREAM       STREAM     STREAM     STREAM   STREAMBED  STREAMBED
                SEG.NO.  NO.  STRM. RCH.    AQUIFER    STRM. RCH.    RUNOFF     PRECIP       ET          HEAD       DEPTH      WIDTH   CONDCTNC.   GRADIENT

   1    1    1     1     1    2.5000E+01  1.0661E+00   2.3934E+01  0.000E+00  0.000E+00  0.000E+00  1.09422E+03  1.172E+00  1.296E+01  5.830E-01  6.095E-01
   1    2    2     1     2    2.3934E+01  3.1271E+00   2.0807E+01  0.000E+00  0.000E+00  0.000E+00  1.08920E+03  1.140E+00  1.252E+01  8.765E-01  1.189E+00
   1    3    3     1     3    2.0807E+01  2.8972E+00   1.7910E+01  0.000E+00  0.000E+00  0.000E+00  1.08351E+03  1.090E+00  1.181E+01  7.084E-01  1.363E+00
   1    3    4     1     4    1.7910E+01  2.4605E+00   1.5449E+01  0.000E+00  0.000E+00  0.000E+00  1.07845E+03  1.044E+00  1.096E+01  6.085E-01  1.348E+00
   1    4    5     2     1    5.4492E+00  2.6593E+00   2.7899E+00  0.000E+00  0.000E+00  0.000E+00  1.07234E+03  4.093E-01  1.200E+01  7.800E-01  1.136E+00
   1    5    6     2     2    2.7899E+00  1.9502E+00   8.3976E-01  0.000E+00  0.000E+00  0.000E+00  1.06676E+03  2.503E-01  1.200E+01  6.000E-01  1.083E+00
   1    6    6     2     3    8.3976E-01  8.3976E-01   0.0000E+00  0.000E+00  0.000E+00  0.000E+00  1.06183E+03  3.547E-02  1.200E+01  6.000E-01  1.012E+00
   1    7    6     2     4    0.0000E+00  0.0000E+00   0.0000E+00  0.000E+00  0.000E+00  0.000E+00  1.05708E+03  0.000E+00  1.200E+01  6.000E-01  1.000E+00
   1    8    6     2     5    0.0000E+00  0.0000E+00   0.0000E+00  0.000E+00  0.000E+00  0.000E+00  1.05236E+03  0.000E+00  1.200E+01  6.000E-01  1.000E+00
   1    3    5     3     1    1.0000E+01  2.8252E+00   7.1748E+00  0.000E+00  0.000E+00  0.000E+00  1.07555E+03  1.909E+00  9.636E+00  7.227E-01  1.955E+00
   1    3    6     3     2    7.1748E+00  2.2394E+00   4.9354E+00  0.000E+00  0.000E+00  0.000E+00  1.07264E+03  1.727E+00  8.909E+00  6.682E-01  1.676E+00
   1    3    7     3     3    4.9354E+00  1.1316E+00   3.8038E+00  0.000E+00  0.000E+00  0.000E+00  1.06987E+03  1.555E+00  8.218E+00  5.547E-01  1.020E+00
   1    4    8     3     4    3.8038E+00  1.6496E+00   2.1543E+00  0.000E+00  0.000E+00  0.000E+00  1.06682E+03  1.364E+00  7.455E+00  6.709E-01  1.229E+00
   1    5    8     3     5    2.1543E+00  1.5790E+00   5.7531E-01  0.000E+00  0.000E+00  0.000E+00  1.06362E+03  1.164E+00  6.655E+00  4.991E-01  1.582E+00
   1    6    8     3     6    5.7531E-01  5.5980E-01   1.5511E-02  0.000E+00  0.000E+00  0.000E+00  1.06158E+03  1.036E+00  6.145E+00  1.844E-01  1.518E+00
   1    5   10     4     1    1.0000E+01  9.0525E-01   9.0947E+00  0.000E+00  0.000E+00  0.000E+00  1.07835E+03  6.210E-01  1.000E+01  2.500E-01  1.207E+00
   1    5    9     4     2    9.0947E+00  1.7835E+00   7.3113E+00  0.000E+00  0.000E+00  0.000E+00  1.07148E+03  5.670E-01  1.000E+01  5.000E-01  1.189E+00
   1    6    8     4     3    7.3113E+00  1.2257E+00   6.0855E+00  0.000E+00  0.000E+00  0.000E+00  1.06368E+03  5.021E-01  1.000E+01  3.500E-01  1.167E+00
   1    6    8     5     1    6.1011E+00  1.0199E+00   5.0812E+00  0.000E+00  0.000E+00  0.000E+00  1.05855E+03  5.479E-01  1.067E+01  4.269E-01  7.963E-01
   1    7    7     5     2    5.0812E+00  1.5918E+00   3.4893E+00  0.000E+00  0.000E+00  0.000E+00  1.05400E+03  4.992E-01  9.098E+00  4.549E-01  1.166E+00
   1    8    7     5     3    3.4893E+00  8.9275E-01   2.5966E+00  0.000E+00  0.000E+00  0.000E+00  1.04969E+03  4.429E-01  7.409E+00  2.593E-01  1.148E+00
   1    8    6     5     4    2.5966E+00  5.3679E-01   2.0598E+00  0.000E+00  0.000E+00  0.000E+00  1.04665E+03  4.032E-01  6.309E+00  1.577E-01  1.134E+00
   1    9    6     6     1    2.0598E+00  1.9126E+00   1.4715E-01  0.000E+00  0.000E+00  0.000E+00  1.04292E+03  1.877E-01  1.200E+01  6.000E-01  1.063E+00
   1   10    7     6     2    1.4715E-01  1.4715E-01   0.0000E+00  0.000E+00  0.000E+00  0.000E+00  1.03819E+03  1.260E-02  1.200E+01  6.000E-01  1.004E+00
   1   11    7     6     3    0.0000E+00  0.0000E+00   0.0000E+00  0.000E+00  0.000E+00  0.000E+00  1.03364E+03  0.000E+00  1.200E+01  6.000E-01  1.000E+00
   1   12    7     6     4    0.0000E+00  0.0000E+00   0.0000E+00  0.000E+00  0.000E+00  0.000E+00  1.02909E+03  0.000E+00  1.200E+01  6.000E-01  4.069E-01
   1   13    7     6     5    0.0000E+00 -7.8911E-01   7.8911E-01  0.000E+00  0.000E+00  0.000E+00  1.02591E+03  0.000E+00  1.200E+01  2.400E-01 -1.096E+00
   1   14    9     7     1    1.5000E+02  2.0778E+00   1.4792E+02  0.000E+00  0.000E+00  0.000E+00  1.03987E+03  2.286E+00  5.529E+01  5.592E+00  1.239E-01
   1   13    8     7     2    1.4792E+02  3.1106E+00   1.4481E+02  0.000E+00  0.000E+00  0.000E+00  1.03477E+03  2.272E+00  5.522E+01  6.144E+00  1.688E-01
   1   13    7     7     3    1.4481E+02  2.6700E+00   1.4214E+02  0.000E+00  0.000E+00  0.000E+00  1.02968E+03  2.256E+00  5.515E+01  5.578E+00  1.596E-01
   1   13    6     8     1    1.4293E+02  9.9564E-01   1.4194E+02  0.000E+00  0.000E+00  0.000E+00  1.02464E+03  2.763E+00  4.006E+01  4.082E+00  8.130E-02
   1   13    5     8     2    1.4194E+02 -1.7420E+00   1.4368E+02  0.000E+00  0.000E+00  0.000E+00  1.01839E+03  2.765E+00  4.010E+01  4.086E+00 -1.421E-01
   1   13    4     8     3    1.4368E+02 -3.5067E+00   1.4718E+02  0.000E+00  0.000E+00  0.000E+00  1.01216E+03  2.784E+00  4.037E+01  4.114E+00 -2.841E-01
   1   13    3     8     4    1.4718E+02 -3.8535E+00   1.5104E+02  0.000E+00  0.000E+00  0.000E+00  1.00594E+03  2.811E+00  4.075E+01  4.153E+00 -3.093E-01
   1   13    2     8     5    1.5104E+02 -1.9844E+00   1.5302E+02  0.000E+00  0.000E+00  0.000E+00  9.99706E+02  2.831E+00  4.105E+01  4.183E+00 -1.581E-01
   1   13    1     8     6    1.5302E+02 -4.3042E-01   1.5345E+02  0.000E+00  0.000E+00  0.000E+00  9.94714E+02  2.839E+00  4.117E+01  2.517E+00 -5.699E-02



1
  VOLUMETRIC BUDGET FOR ENTIRE MODEL AT END OF TIME STEP  5 IN STRESS PERIOD   2
  ------------------------------------------------------------------------------

     CUMULATIVE VOLUMES      L**3       RATES FOR THIS TIME STEP      L**3/T
     ------------------                 ------------------------

           IN:                                      IN:
           ---                                      ---
             STORAGE =       17502.4922               STORAGE =       1.9668E-02
       CONSTANT HEAD =           0.0000         CONSTANT HEAD =           0.0000
               WELLS =           0.0000                 WELLS =           0.0000
     HEAD DEP BOUNDS =      657502.7500       HEAD DEP BOUNDS =           0.2092
        UZF RECHARGE =    27054608.0000          UZF RECHARGE =           9.2572
               GW ET =           0.0000                 GW ET =           0.0000
     SURFACE LEAKAGE =           0.0000       SURFACE LEAKAGE =           0.0000
      STREAM LEAKAGE =   138300576.0000        STREAM LEAKAGE =          43.8540

            TOTAL IN =   166030192.0000              TOTAL IN =          53.3401

          OUT:                                     OUT:
          ----                                     ----
             STORAGE =     3787018.7500               STORAGE =           7.0988
       CONSTANT HEAD =           0.0000         CONSTANT HEAD =           0.0000
               WELLS =    62659432.0000                 WELLS =          20.0000
     HEAD DEP BOUNDS =      818428.5000       HEAD DEP BOUNDS =           0.2616
        UZF RECHARGE =           0.0000          UZF RECHARGE =           0.0000
               GW ET =    60554288.0000                 GW ET =          13.5982
     SURFACE LEAKAGE =           0.0000       SURFACE LEAKAGE =           0.0000
      STREAM LEAKAGE =    38166360.0000        STREAM LEAKAGE =          12.3060

           TOTAL OUT =   165985520.0000             TOTAL OUT =          53.2646

            IN - OUT =       44672.0000              IN - OUT =       7.5535E-02

 PERCENT DISCREPANCY =           0.03     PERCENT DISCREPANCY =           0.14






          TIME SUMMARY AT END OF TIME STEP   5 IN STRESS PERIOD    2
                    SECONDS     MINUTES      HOURS       DAYS        YEARS
                    -----------------------------------------------------------
   TIME STEP LENGTH 1.21100E+05  2018.3      33.639      1.4016     3.83743E-03
 STRESS PERIOD TIME 5.04972E+05  8416.2      140.27      5.8446     1.60016E-02
         TOTAL TIME 3.13297E+06  52216.      870.27      36.261     9.92779E-02
1
 
 SOLVING FOR HEAD 
     5 ITERATIONS FOR TIME STEP   6 IN STRESS PERIOD    2

 MAXIMUM HEAD CHANGE FOR EACH ITERATION:

    HEAD CHANGE   HEAD CHANGE   HEAD CHANGE   HEAD CHANGE   HEAD CHANGE
  LAYER,ROW,COL LAYER,ROW,COL LAYER,ROW,COL LAYER,ROW,COL LAYER,ROW,COL
 ----------------------------------------------------------------------
     0.1115E-01    0.3732E-02    0.1475E-02    0.5385E-03    0.1884E-03
  (  1, 12,  8) (  1,  3,  5) (  1,  3,  5) (  1,  3,  5) (  1,  3,  5)


 NO OUTPUT CONTROL FOR STRESS PERIOD    2   TIME STEP   6
 
 SOLVING FOR HEAD 
     6 ITERATIONS FOR TIME STEP   7 IN STRESS PERIOD    2

 MAXIMUM HEAD CHANGE FOR EACH ITERATION:

    HEAD CHANGE   HEAD CHANGE   HEAD CHANGE   HEAD CHANGE   HEAD CHANGE
  LAYER,ROW,COL LAYER,ROW,COL LAYER,ROW,COL LAYER,ROW,COL LAYER,ROW,COL
 ----------------------------------------------------------------------
     0.1171E-01    0.3774E-02    0.1464E-02    0.5593E-03    0.2004E-03
  (  1, 12,  8) (  1,  3,  5) (  1,  3,  5) (  1,  3,  5) (  1,  3,  5)
     0.9653E-04
  (  1,  6,  8)


 NO OUTPUT CONTROL FOR STRESS PERIOD    2   TIME STEP   7
 
 SOLVING FOR HEAD 
     5 ITERATIONS FOR TIME STEP   8 IN STRESS PERIOD    2

 MAXIMUM HEAD CHANGE FOR EACH ITERATION:

    HEAD CHANGE   HEAD CHANGE   HEAD CHANGE   HEAD CHANGE   HEAD CHANGE
  LAYER,ROW,COL LAYER,ROW,COL LAYER,ROW,COL LAYER,ROW,COL LAYER,ROW,COL
 ----------------------------------------------------------------------
     0.1242E-01    0.3766E-02    0.1436E-02    0.4806E-03    0.1932E-03
  (  1, 12,  8) (  1,  3,  5) (  1,  3,  5) (  1,  3,  5) (  1,  3,  5)


 NO OUTPUT CONTROL FOR STRESS PERIOD    2   TIME STEP   8
 
 SOLVING FOR HEAD 
     6 ITERATIONS FOR TIME STEP   9 IN STRESS PERIOD    2

 MAXIMUM HEAD CHANGE FOR EACH ITERATION:

    HEAD CHANGE   HEAD CHANGE   HEAD CHANGE   HEAD CHANGE   HEAD CHANGE
  LAYER,ROW,COL LAYER,ROW,COL LAYER,ROW,COL LAYER,ROW,COL LAYER,ROW,COL
 ----------------------------------------------------------------------
     0.1313E-01    0.3705E-02    0.1364E-02    0.4863E-03    0.2032E-03
  (  1, 12,  8) (  1, 12,  8) (  1,  3,  5) (  1,  3,  5) (  1,  3,  5)
     0.8930E-04
  (  1, 13,  6)


 NO OUTPUT CONTROL FOR STRESS PERIOD    2   TIME STEP   9
 
 SOLVING FOR HEAD 
     6 ITERATIONS FOR TIME STEP  10 IN STRESS PERIOD    2

 MAXIMUM HEAD CHANGE FOR EACH ITERATION:

    HEAD CHANGE   HEAD CHANGE   HEAD CHANGE   HEAD CHANGE   HEAD CHANGE
  LAYER,ROW,COL LAYER,ROW,COL LAYER,ROW,COL LAYER,ROW,COL LAYER,ROW,COL
 ----------------------------------------------------------------------
     0.1382E-01    0.3830E-02    0.1292E-02    0.4945E-03    0.2040E-03
  (  1, 12,  8) (  1, 12,  8) (  1,  3,  5) (  1, 13,  4) (  1,  3,  5)
     0.8289E-04
  (  1, 13,  4)


 OUTPUT CONTROL FOR STRESS PERIOD    2   TIME STEP  10
    PRINT BUDGET
    SAVE BUDGET

            WELLS   PERIOD    2   STEP  10
 WELL      1   LAYER   1   ROW     6   COL     4   RATE    -2.00000    
 WELL      2   LAYER   1   ROW     6   COL     5   RATE    -2.00000    
 WELL      3   LAYER   1   ROW     7   COL     4   RATE    -2.00000    
 WELL      4   LAYER   1   ROW     7   COL     5   RATE    -2.00000    
 WELL      5   LAYER   1   ROW     8   COL     4   RATE    -2.00000    
 WELL      6   LAYER   1   ROW     8   COL     5   RATE    -2.00000    
 WELL      7   LAYER   1   ROW     9   COL     4   RATE    -2.00000    
 WELL      8   LAYER   1   ROW     9   COL     5   RATE    -2.00000    
 WELL      9   LAYER   1   ROW    10   COL     4   RATE    -2.00000    
 WELL     10   LAYER   1   ROW    10   COL     5   RATE    -2.00000    

  HEAD DEP BOUNDS   PERIOD    2   STEP  10
 BOUNDARY      1   LAYER   1   ROW    13   COL     1   RATE   -0.262153    
 BOUNDARY      2   LAYER   1   ROW    14   COL     9   RATE    0.208675    
 UBDSV3 SAVING "           GW ET" ON UNIT  61 AT TIME STEP 10, STRESS PERIOD   2
 UBDSV3 SAVING "    UZF INFILTR." ON UNIT  61 AT TIME STEP 10, STRESS PERIOD   2
 UBDSV3 SAVING "    UZF RECHARGE" ON UNIT  61 AT TIME STEP 10, STRESS PERIOD   2
 UBDSV3 SAVING " SURFACE LEAKAGE" ON UNIT  61 AT TIME STEP 10, STRESS PERIOD   2


UNSATURATED ZONE PACKAGE VOLUMETRIC BUDGET FOR  TIME STEP   10 STRESS PERIOD    2
  ------------------------------------------------------------------------------



     CUMULATIVE VOLUMES      L**3       RATES FOR THIS TIME STEP      L**3/T
     ------------------                 ------------------------

           IN:                                      IN:
           ---                                      ---
        INFILTRATION =   111648523.2665          INFILTRATION =          67.8000

          OUT:                                     OUT:
          ----                                     ----
              UZF ET =   164098138.0256                UZF ET =         124.4178
        UZF RECHARGE =    34386869.7208          UZF RECHARGE =           9.0149

            IN - OUT =   -86836484.4800              IN - OUT =         -65.6327

          STORAGE:                                 STORAGE:
          --------                                 --------
      STORAGE CHANGE =   -86813671.6012        STORAGE CHANGE =         -65.6126

 PERCENT DISCREPANCY IS DIFFERENCE BETWEEN IN-OUT MINUS CHANGE IN STORAGE
 DIVIDED BY THE AVERAGE OF IN AND OUT TIMES 100

 PERCENT DISCREPANCY =           0.00     PERCENT DISCREPANCY =          -0.02









 STREAM LISTING     PERIOD      2   STEP       10

 LAYER ROW COL. STREAM  RCH.  FLOW INTO     FLOW TO   FLOW OUT OF   OVRLND.     DIRECT     STREAM       STREAM     STREAM     STREAM   STREAMBED  STREAMBED
                SEG.NO.  NO.  STRM. RCH.    AQUIFER    STRM. RCH.    RUNOFF     PRECIP       ET          HEAD       DEPTH      WIDTH   CONDCTNC.   GRADIENT

   1    1    1     1     1    2.5000E+01  1.0499E+00   2.3950E+01  0.000E+00  0.000E+00  0.000E+00  1.09422E+03  1.172E+00  1.296E+01  5.831E-01  6.002E-01
   1    2    2     1     2    2.3950E+01  3.0962E+00   2.0854E+01  0.000E+00  0.000E+00  0.000E+00  1.08920E+03  1.140E+00  1.253E+01  8.770E-01  1.177E+00
   1    3    3     1     3    2.0854E+01  2.9011E+00   1.7953E+01  0.000E+00  0.000E+00  0.000E+00  1.08351E+03  1.090E+00  1.182E+01  7.092E-01  1.363E+00
   1    3    4     1     4    1.7953E+01  2.4640E+00   1.5489E+01  0.000E+00  0.000E+00  0.000E+00  1.07845E+03  1.044E+00  1.098E+01  6.092E-01  1.348E+00
   1    4    5     2     1    5.4889E+00  2.6611E+00   2.8279E+00  0.000E+00  0.000E+00  0.000E+00  1.07235E+03  4.116E-01  1.200E+01  7.800E-01  1.137E+00
   1    5    6     2     2    2.8279E+00  1.9520E+00   8.7585E-01  0.000E+00  0.000E+00  0.000E+00  1.06676E+03  2.533E-01  1.200E+01  6.000E-01  1.084E+00
   1    6    6     2     3    8.7585E-01  8.7585E-01   0.0000E+00  0.000E+00  0.000E+00  0.000E+00  1.06183E+03  3.637E-02  1.200E+01  6.000E-01  1.012E+00
   1    7    6     2     4    0.0000E+00  0.0000E+00   0.0000E+00  0.000E+00  0.000E+00  0.000E+00  1.05708E+03  0.000E+00  1.200E+01  6.000E-01  1.000E+00
   1    8    6     2     5    0.0000E+00  0.0000E+00   0.0000E+00  0.000E+00  0.000E+00  0.000E+00  1.05236E+03  0.000E+00  1.200E+01  6.000E-01  1.000E+00
   1    3    5     3     1    1.0000E+01  2.8252E+00   7.1748E+00  0.000E+00  0.000E+00  0.000E+00  1.07555E+03  1.909E+00  9.636E+00  7.227E-01  1.955E+00
   1    3    6     3     2    7.1748E+00  2.2021E+00   4.9727E+00  0.000E+00  0.000E+00  0.000E+00  1.07264E+03  1.727E+00  8.909E+00  6.682E-01  1.648E+00
   1    3    7     3     3    4.9727E+00  1.1012E+00   3.8715E+00  0.000E+00  0.000E+00  0.000E+00  1.06987E+03  1.555E+00  8.218E+00  5.547E-01  9.925E-01
   1    4    8     3     4    3.8715E+00  1.6082E+00   2.2632E+00  0.000E+00  0.000E+00  0.000E+00  1.06682E+03  1.364E+00  7.455E+00  6.709E-01  1.199E+00
   1    5    8     3     5    2.2632E+00  1.5790E+00   6.8427E-01  0.000E+00  0.000E+00  0.000E+00  1.06362E+03  1.164E+00  6.655E+00  4.991E-01  1.582E+00
   1    6    8     3     6    6.8427E-01  5.5980E-01   1.2447E-01  0.000E+00  0.000E+00  0.000E+00  1.06158E+03  1.036E+00  6.145E+00  1.844E-01  1.518E+00
   1    5   10     4     1    1.0000E+01  9.0525E-01   9.0947E+00  0.000E+00  0.000E+00  0.000E+00  1.07835E+03  6.210E-01  1.000E+01  2.500E-01  1.207E+00
   1    5    9     4     2    9.0947E+00  1.7835E+00   7.3113E+00  0.000E+00  0.000E+00  0.000E+00  1.07148E+03  5.670E-01  1.000E+01  5.000E-01  1.189E+00
   1    6    8     4     3    7.3113E+00  1.2257E+00   6.0855E+00  0.000E+00  0.000E+00  0.000E+00  1.06368E+03  5.021E-01  1.000E+01  3.500E-01  1.167E+00
   1    6    8     5     1    6.2100E+00  1.0123E+00   5.1978E+00  0.000E+00  0.000E+00  0.000E+00  1.05855E+03  5.518E-01  1.080E+01  4.321E-01  7.810E-01
   1    7    7     5     2    5.1978E+00  1.6169E+00   3.5808E+00  0.000E+00  0.000E+00  0.000E+00  1.05400E+03  5.035E-01  9.230E+00  4.615E-01  1.168E+00
   1    8    7     5     3    3.5808E+00  9.0854E-01   2.6723E+00  0.000E+00  0.000E+00  0.000E+00  1.04970E+03  4.471E-01  7.531E+00  2.636E-01  1.149E+00
   1    8    6     5     4    2.6723E+00  5.4720E-01   2.1251E+00  0.000E+00  0.000E+00  0.000E+00  1.04666E+03  4.075E-01  6.423E+00  1.606E-01  1.136E+00
   1    9    6     6     1    2.1251E+00  1.9165E+00   2.0859E-01  0.000E+00  0.000E+00  0.000E+00  1.04292E+03  1.942E-01  1.200E+01  6.000E-01  1.065E+00
   1   10    7     6     2    2.0859E-01  2.0859E-01   0.0000E+00  0.000E+00  0.000E+00  0.000E+00  1.03820E+03  1.555E-02  1.200E+01  6.000E-01  1.005E+00
   1   11    7     6     3    0.0000E+00  0.0000E+00   0.0000E+00  0.000E+00  0.000E+00  0.000E+00  1.03364E+03  0.000E+00  1.200E+01  6.000E-01  1.000E+00
   1   12    7     6     4    0.0000E+00  0.0000E+00   0.0000E+00  0.000E+00  0.000E+00  0.000E+00  1.02909E+03  0.000E+00  1.200E+01  6.000E-01  3.933E-01
   1   13    7     6     5    0.0000E+00 -7.9176E-01   7.9176E-01  0.000E+00  0.000E+00  0.000E+00  1.02591E+03  0.000E+00  1.200E+01  2.400E-01 -1.100E+00
   1   14    9     7     1    1.5000E+02  2.0025E+00   1.4800E+02  0.000E+00  0.000E+00  0.000E+00  1.03987E+03  2.286E+00  5.529E+01  5.592E+00  1.194E-01
   1   13    8     7     2    1.4800E+02  3.0377E+00   1.4496E+02  0.000E+00  0.000E+00  0.000E+00  1.03477E+03  2.273E+00  5.523E+01  6.144E+00  1.648E-01
   1   13    7     7     3    1.4496E+02  2.6140E+00   1.4235E+02  0.000E+00  0.000E+00  0.000E+00  1.02968E+03  2.257E+00  5.516E+01  5.578E+00  1.562E-01
   1   13    6     8     1    1.4314E+02  9.4736E-01   1.4219E+02  0.000E+00  0.000E+00  0.000E+00  1.02464E+03  2.764E+00  4.008E+01  4.085E+00  7.731E-02
   1   13    5     8     2    1.4219E+02 -1.7707E+00   1.4396E+02  0.000E+00  0.000E+00  0.000E+00  1.01839E+03  2.767E+00  4.013E+01  4.089E+00 -1.443E-01
   1   13    4     8     3    1.4396E+02 -3.5999E+00   1.4756E+02  0.000E+00  0.000E+00  0.000E+00  1.01216E+03  2.787E+00  4.041E+01  4.118E+00 -2.914E-01
   1   13    3     8     4    1.4756E+02 -3.8694E+00   1.5143E+02  0.000E+00  0.000E+00  0.000E+00  1.00594E+03  2.813E+00  4.079E+01  4.157E+00 -3.103E-01
   1   13    2     8     5    1.5143E+02 -2.0397E+00   1.5347E+02  0.000E+00  0.000E+00  0.000E+00  9.99709E+02  2.834E+00  4.109E+01  4.188E+00 -1.624E-01
   1   13    1     8     6    1.5347E+02 -4.5640E-01   1.5393E+02  0.000E+00  0.000E+00  0.000E+00  9.94718E+02  2.843E+00  4.122E+01  2.520E+00 -6.037E-02



1
  VOLUMETRIC BUDGET FOR ENTIRE MODEL AT END OF TIME STEP 10 IN STRESS PERIOD   2
  ------------------------------------------------------------------------------

     CUMULATIVE VOLUMES      L**3       RATES FOR THIS TIME STEP      L**3/T
     ------------------                 ------------------------

           IN:                                      IN:
           ---                                      ---
             STORAGE =       24061.8770               STORAGE =       7.4559E-03
       CONSTANT HEAD =           0.0000         CONSTANT HEAD =           0.0000
               WELLS =           0.0000                 WELLS =           0.0000
     HEAD DEP BOUNDS =      827342.6875       HEAD DEP BOUNDS =           0.2087
        UZF RECHARGE =    34386872.0000          UZF RECHARGE =           9.0149
               GW ET =           0.0000                 GW ET =           0.0000
     SURFACE LEAKAGE =           0.0000       SURFACE LEAKAGE =           0.0000
      STREAM LEAKAGE =   173827344.0000        STREAM LEAKAGE =          43.6015

            TOTAL IN =   209065616.0000              TOTAL IN =          52.8326

          OUT:                                     OUT:
          ----                                     ----
             STORAGE =     9122352.0000               STORAGE =           6.3163
       CONSTANT HEAD =           0.0000         CONSTANT HEAD =           0.0000
               WELLS =    78924672.0000                 WELLS =          20.0000
     HEAD DEP BOUNDS =     1031479.3750       HEAD DEP BOUNDS =           0.2622
        UZF RECHARGE =           0.0000          UZF RECHARGE =           0.0000
               GW ET =    71655968.0000                 GW ET =          13.6827
     SURFACE LEAKAGE =           0.0000       SURFACE LEAKAGE =           0.0000
      STREAM LEAKAGE =    48270376.0000        STREAM LEAKAGE =          12.5278

           TOTAL OUT =   209004848.0000             TOTAL OUT =          52.7890

            IN - OUT =       60768.0000              IN - OUT =       4.3617E-02

 PERCENT DISCREPANCY =           0.03     PERCENT DISCREPANCY =           0.08






          TIME SUMMARY AT END OF TIME STEP  10 IN STRESS PERIOD    2
                    SECONDS     MINUTES      HOURS       DAYS        YEARS
                    -----------------------------------------------------------
   TIME STEP LENGTH 1.95033E+05  3250.6      54.176      2.2573     6.18023E-03
 STRESS PERIOD TIME 1.31823E+06  21971.      366.18      15.257     4.17723E-02
         TOTAL TIME 3.94623E+06  65771.      1096.2      45.674     0.12505    
1
 
 SOLVING FOR HEAD 
     5 ITERATIONS FOR TIME STEP  11 IN STRESS PERIOD    2

 MAXIMUM HEAD CHANGE FOR EACH ITERATION:

    HEAD CHANGE   HEAD CHANGE   HEAD CHANGE   HEAD CHANGE   HEAD CHANGE
  LAYER,ROW,COL LAYER,ROW,COL LAYER,ROW,COL LAYER,ROW,COL LAYER,ROW,COL
 ----------------------------------------------------------------------
     0.1454E-01    0.4012E-02    0.1359E-02    0.5460E-03    0.1841E-03
  (  1, 12,  8) (  1, 12,  8) (  1, 13,  3) (  1, 13,  3) (  1, 13,  3)


 NO OUTPUT CONTROL FOR STRESS PERIOD    2   TIME STEP  11
 
 SOLVING FOR HEAD 
     6 ITERATIONS FOR TIME STEP  12 IN STRESS PERIOD    2

 MAXIMUM HEAD CHANGE FOR EACH ITERATION:

    HEAD CHANGE   HEAD CHANGE   HEAD CHANGE   HEAD CHANGE   HEAD CHANGE
  LAYER,ROW,COL LAYER,ROW,COL LAYER,ROW,COL LAYER,ROW,COL LAYER,ROW,COL
 ----------------------------------------------------------------------
     0.1516E-01    0.4032E-02    0.1540E-02    0.5698E-03    0.2279E-03
  (  1, 12,  8) (  1, 12,  8) (  1, 13,  5) (  1, 13,  3) (  1, 13,  5)
     0.1060E-03
  (  1, 13,  5)


 NO OUTPUT CONTROL FOR STRESS PERIOD    2   TIME STEP  12
 
 SOLVING FOR HEAD 
     5 ITERATIONS FOR TIME STEP  13 IN STRESS PERIOD    2

 MAXIMUM HEAD CHANGE FOR EACH ITERATION:

    HEAD CHANGE   HEAD CHANGE   HEAD CHANGE   HEAD CHANGE   HEAD CHANGE
  LAYER,ROW,COL LAYER,ROW,COL LAYER,ROW,COL LAYER,ROW,COL LAYER,ROW,COL
 ----------------------------------------------------------------------
     0.1575E-01    0.4168E-02    0.1197E-02    0.4386E-03    0.1721E-03
  (  1, 12,  8) (  1, 12,  8) (  1, 13,  5) (  1, 13,  5) (  1, 13,  3)


 NO OUTPUT CONTROL FOR STRESS PERIOD    2   TIME STEP  13
 
 SOLVING FOR HEAD 
     5 ITERATIONS FOR TIME STEP  14 IN STRESS PERIOD    2

 MAXIMUM HEAD CHANGE FOR EACH ITERATION:

    HEAD CHANGE   HEAD CHANGE   HEAD CHANGE   HEAD CHANGE   HEAD CHANGE
  LAYER,ROW,COL LAYER,ROW,COL LAYER,ROW,COL LAYER,ROW,COL LAYER,ROW,COL
 ----------------------------------------------------------------------
     0.1635E-01    0.4215E-02    0.1021E-02    0.3816E-03    0.1454E-03
  (  1, 12,  8) (  1, 12,  8) (  1, 12,  8) (  1, 13,  5) (  1, 13,  5)


 NO OUTPUT CONTROL FOR STRESS PERIOD    2   TIME STEP  14
 
 SOLVING FOR HEAD 
     5 ITERATIONS FOR TIME STEP  15 IN STRESS PERIOD    2

 MAXIMUM HEAD CHANGE FOR EACH ITERATION:

    HEAD CHANGE   HEAD CHANGE   HEAD CHANGE   HEAD CHANGE   HEAD CHANGE
  LAYER,ROW,COL LAYER,ROW,COL LAYER,ROW,COL LAYER,ROW,COL LAYER,ROW,COL
 ----------------------------------------------------------------------
     0.1689E-01    0.4227E-02    0.1041E-02    0.2958E-03    0.1415E-03
  (  1, 12,  8) (  1, 12,  8) (  1, 12,  8) (  1, 13,  5) (  1, 13,  3)


 OUTPUT CONTROL FOR STRESS PERIOD    2   TIME STEP  15
    PRINT BUDGET
    PRINT HEAD FOR ALL LAYERS
    SAVE HEAD FOR ALL LAYERS
    SAVE BUDGET

            WELLS   PERIOD    2   STEP  15
 WELL      1   LAYER   1   ROW     6   COL     4   RATE    -2.00000    
 WELL      2   LAYER   1   ROW     6   COL     5   RATE    -2.00000    
 WELL      3   LAYER   1   ROW     7   COL     4   RATE    -2.00000    
 WELL      4   LAYER   1   ROW     7   COL     5   RATE    -2.00000    
 WELL      5   LAYER   1   ROW     8   COL     4   RATE    -2.00000    
 WELL      6   LAYER   1   ROW     8   COL     5   RATE    -2.00000    
 WELL      7   LAYER   1   ROW     9   COL     4   RATE    -2.00000    
 WELL      8   LAYER   1   ROW     9   COL     5   RATE    -2.00000    
 WELL      9   LAYER   1   ROW    10   COL     4   RATE    -2.00000    
 WELL     10   LAYER   1   ROW    10   COL     5   RATE    -2.00000    

  HEAD DEP BOUNDS   PERIOD    2   STEP  15
 BOUNDARY      1   LAYER   1   ROW    13   COL     1   RATE   -0.262604    
 BOUNDARY      2   LAYER   1   ROW    14   COL     9   RATE    0.208433    
 UBDSV3 SAVING "           GW ET" ON UNIT  61 AT TIME STEP 15, STRESS PERIOD   2
 UBDSV3 SAVING "    UZF INFILTR." ON UNIT  61 AT TIME STEP 15, STRESS PERIOD   2
 UBDSV3 SAVING "    UZF RECHARGE" ON UNIT  61 AT TIME STEP 15, STRESS PERIOD   2
 UBDSV3 SAVING " SURFACE LEAKAGE" ON UNIT  61 AT TIME STEP 15, STRESS PERIOD   2


UNSATURATED ZONE PACKAGE VOLUMETRIC BUDGET FOR  TIME STEP   15 STRESS PERIOD    2
  ------------------------------------------------------------------------------



     CUMULATIVE VOLUMES      L**3       RATES FOR THIS TIME STEP      L**3/T
     ------------------                 ------------------------

           IN:                                      IN:
           ---                                      ---
        INFILTRATION =   200450681.7361          INFILTRATION =          67.8000

          OUT:                                     OUT:
          ----                                     ----
              UZF ET =   326963641.8738                UZF ET =         124.3049
        UZF RECHARGE =    46551744.6091          UZF RECHARGE =           9.0485

            IN - OUT =  -173064704.7468              IN - OUT =         -65.5534

          STORAGE:                                 STORAGE:
          --------                                 --------
      STORAGE CHANGE =  -173018943.7083        STORAGE CHANGE =         -65.5315

 PERCENT DISCREPANCY IS DIFFERENCE BETWEEN IN-OUT MINUS CHANGE IN STORAGE
 DIVIDED BY THE AVERAGE OF IN AND OUT TIMES 100

 PERCENT DISCREPANCY =           0.00     PERCENT DISCREPANCY =          -0.02









 STREAM LISTING     PERIOD      2   STEP       15

 LAYER ROW COL. STREAM  RCH.  FLOW INTO     FLOW TO   FLOW OUT OF   OVRLND.     DIRECT     STREAM       STREAM     STREAM     STREAM   STREAMBED  STREAMBED
                SEG.NO.  NO.  STRM. RCH.    AQUIFER    STRM. RCH.    RUNOFF     PRECIP       ET          HEAD       DEPTH      WIDTH   CONDCTNC.   GRADIENT

   1    1    1     1     1    2.5000E+01  1.0297E+00   2.3970E+01  0.000E+00  0.000E+00  0.000E+00  1.09422E+03  1.172E+00  1.296E+01  5.832E-01  5.886E-01
   1    2    2     1     2    2.3970E+01  3.0631E+00   2.0907E+01  0.000E+00  0.000E+00  0.000E+00  1.08920E+03  1.141E+00  1.254E+01  8.776E-01  1.163E+00
   1    3    3     1     3    2.0907E+01  2.9054E+00   1.8002E+01  0.000E+00  0.000E+00  0.000E+00  1.08351E+03  1.091E+00  1.184E+01  7.102E-01  1.364E+00
   1    3    4     1     4    1.8002E+01  2.4679E+00   1.5534E+01  0.000E+00  0.000E+00  0.000E+00  1.07845E+03  1.045E+00  1.099E+01  6.101E-01  1.348E+00
   1    4    5     2     1    5.5338E+00  2.6631E+00   2.8707E+00  0.000E+00  0.000E+00  0.000E+00  1.07235E+03  4.142E-01  1.200E+01  7.800E-01  1.138E+00
   1    5    6     2     2    2.8707E+00  1.9541E+00   9.1664E-01  0.000E+00  0.000E+00  0.000E+00  1.06677E+03  2.568E-01  1.200E+01  6.000E-01  1.086E+00
   1    6    6     2     3    9.1664E-01  9.1664E-01   0.0000E+00  0.000E+00  0.000E+00  0.000E+00  1.06180E+03  9.345E-03  1.200E+01  6.000E-01  1.003E+00
   1    7    6     2     4    0.0000E+00  0.0000E+00   0.0000E+00  0.000E+00  0.000E+00  0.000E+00  1.05708E+03  0.000E+00  1.200E+01  6.000E-01  1.000E+00
   1    8    6     2     5    0.0000E+00  0.0000E+00   0.0000E+00  0.000E+00  0.000E+00  0.000E+00  1.05236E+03  0.000E+00  1.200E+01  6.000E-01  1.000E+00
   1    3    5     3     1    1.0000E+01  2.8252E+00   7.1748E+00  0.000E+00  0.000E+00  0.000E+00  1.07555E+03  1.909E+00  9.636E+00  7.227E-01  1.955E+00
   1    3    6     3     2    7.1748E+00  2.1845E+00   4.9903E+00  0.000E+00  0.000E+00  0.000E+00  1.07264E+03  1.727E+00  8.909E+00  6.682E-01  1.635E+00
   1    3    7     3     3    4.9903E+00  1.0814E+00   3.9089E+00  0.000E+00  0.000E+00  0.000E+00  1.06987E+03  1.555E+00  8.218E+00  5.547E-01  9.747E-01
   1    4    8     3     4    3.9089E+00  1.5695E+00   2.3394E+00  0.000E+00  0.000E+00  0.000E+00  1.06682E+03  1.364E+00  7.455E+00  6.709E-01  1.170E+00
   1    5    8     3     5    2.3394E+00  1.5790E+00   7.6042E-01  0.000E+00  0.000E+00  0.000E+00  1.06362E+03  1.164E+00  6.655E+00  4.991E-01  1.582E+00
   1    6    8     3     6    7.6042E-01  5.5980E-01   2.0062E-01  0.000E+00  0.000E+00  0.000E+00  1.06158E+03  1.036E+00  6.145E+00  1.844E-01  1.518E+00
   1    5   10     4     1    1.0000E+01  9.0525E-01   9.0947E+00  0.000E+00  0.000E+00  0.000E+00  1.07835E+03  6.210E-01  1.000E+01  2.500E-01  1.207E+00
   1    5    9     4     2    9.0947E+00  1.7835E+00   7.3113E+00  0.000E+00  0.000E+00  0.000E+00  1.07148E+03  5.670E-01  1.000E+01  5.000E-01  1.189E+00
   1    6    8     4     3    7.3113E+00  1.2257E+00   6.0855E+00  0.000E+00  0.000E+00  0.000E+00  1.06368E+03  5.021E-01  1.000E+01  3.500E-01  1.167E+00
   1    6    8     5     1    6.2862E+00  9.9846E-01   5.2877E+00  0.000E+00  0.000E+00  0.000E+00  1.05855E+03  5.546E-01  1.090E+01  4.358E-01  7.637E-01
   1    7    7     5     2    5.2877E+00  1.6361E+00   3.6516E+00  0.000E+00  0.000E+00  0.000E+00  1.05401E+03  5.067E-01  9.331E+00  4.666E-01  1.169E+00
   1    8    7     5     3    3.6516E+00  9.2063E-01   2.7310E+00  0.000E+00  0.000E+00  0.000E+00  1.04970E+03  4.503E-01  7.624E+00  2.668E-01  1.150E+00
   1    8    6     5     4    2.7310E+00  5.5517E-01   2.1758E+00  0.000E+00  0.000E+00  0.000E+00  1.04666E+03  4.107E-01  6.511E+00  1.628E-01  1.137E+00
   1    9    6     6     1    2.1758E+00  1.9194E+00   2.5638E-01  0.000E+00  0.000E+00  0.000E+00  1.04293E+03  1.990E-01  1.200E+01  6.000E-01  1.066E+00
   1   10    7     6     2    2.5638E-01  2.5638E-01   0.0000E+00  0.000E+00  0.000E+00  0.000E+00  1.03820E+03  1.760E-02  1.200E+01  6.000E-01  1.006E+00
   1   11    7     6     3    0.0000E+00  0.0000E+00   0.0000E+00  0.000E+00  0.000E+00  0.000E+00  1.03364E+03  0.000E+00  1.200E+01  6.000E-01  1.000E+00
   1   12    7     6     4    0.0000E+00  0.0000E+00   0.0000E+00  0.000E+00  0.000E+00  0.000E+00  1.02909E+03  0.000E+00  1.200E+01  6.000E-01  3.745E-01
   1   13    7     6     5    0.0000E+00 -7.9356E-01   7.9356E-01  0.000E+00  0.000E+00  0.000E+00  1.02591E+03  0.000E+00  1.200E+01  2.400E-01 -1.102E+00
   1   14    9     7     1    1.5000E+02  1.9674E+00   1.4803E+02  0.000E+00  0.000E+00  0.000E+00  1.03987E+03  2.286E+00  5.529E+01  5.592E+00  1.173E-01
   1   13    8     7     2    1.4803E+02  2.9939E+00   1.4504E+02  0.000E+00  0.000E+00  0.000E+00  1.03477E+03  2.273E+00  5.523E+01  6.144E+00  1.624E-01
   1   13    7     7     3    1.4504E+02  2.5751E+00   1.4246E+02  0.000E+00  0.000E+00  0.000E+00  1.02968E+03  2.258E+00  5.516E+01  5.578E+00  1.539E-01
   1   13    6     8     1    1.4326E+02  8.9602E-01   1.4236E+02  0.000E+00  0.000E+00  0.000E+00  1.02464E+03  2.765E+00  4.010E+01  4.086E+00  7.309E-02
   1   13    5     8     2    1.4236E+02 -1.9851E+00   1.4435E+02  0.000E+00  0.000E+00  0.000E+00  1.01839E+03  2.769E+00  4.016E+01  4.092E+00 -1.617E-01
   1   13    4     8     3    1.4435E+02 -3.7628E+00   1.4811E+02  0.000E+00  0.000E+00  0.000E+00  1.01217E+03  2.790E+00  4.046E+01  4.123E+00 -3.042E-01
   1   13    3     8     4    1.4811E+02 -4.0847E+00   1.5219E+02  0.000E+00  0.000E+00  0.000E+00  1.00594E+03  2.818E+00  4.086E+01  4.164E+00 -3.270E-01
   1   13    2     8     5    1.5219E+02 -2.0753E+00   1.5427E+02  0.000E+00  0.000E+00  0.000E+00  9.99714E+02  2.839E+00  4.117E+01  4.196E+00 -1.649E-01
   1   13    1     8     6    1.5427E+02 -4.7316E-01   1.5474E+02  0.000E+00  0.000E+00  0.000E+00  9.94723E+02  2.848E+00  4.130E+01  2.525E+00 -6.246E-02



1
              HEAD IN LAYER   1 AT END OF TIME STEP  15 IN STRESS PERIOD    2
  ---------------------------------------------------------------------------

           1       2       3       4       5       6       7       8       9      10
 ...................................................................................
   1  1092.45 1088.64 6999.00 6999.00 6999.00 6999.00 6999.00 6999.00 6999.00 6999.00
   2  1089.23 1085.71 1078.99 6999.00 6999.00 1071.61 1070.87 1070.38 6999.00 6999.00
   3  6999.00 1077.31 1074.11 1069.77 1070.17 1069.37 1067.92 1067.82 6999.00 6999.00
   4  1067.82 1068.30 1066.40 1062.69 1061.52 1060.31 1061.18 1064.48 1063.72 6999.00
   5  1063.67 1061.22 1058.40 1056.12 1055.89 1056.68 1056.77 1059.14 1062.77 1065.26
   6  1058.99 1055.26 1051.82 1049.36 1049.79 1051.92 1053.57 1056.26 1059.20 1063.61
   7  1055.33 1049.58 1045.87 1043.49 1044.29 1046.83 1049.66 1052.36 1054.05 6999.00
   8  6999.00 1042.24 1039.80 1037.86 1038.93 1041.67 1043.85 1046.90 1049.11 6999.00
   9  6999.00 1035.30 1033.84 1032.56 1033.96 1036.86 1038.06 1040.43 1043.70 6999.00
  10  6999.00 1028.29 1027.98 1027.92 1029.57 1032.03 1033.46 1035.84 1039.94 1044.37
  11  6999.00 1019.58 1020.95 1024.02 1026.12 1028.39 1030.00 1032.60 1036.22 6999.00
  12  1001.16 1008.78 1013.94 1018.64 1022.29 1025.56 1027.97 1031.04 1034.78 6999.00
  13   994.91 1000.21 1006.92 1013.08 1018.88 1024.42 1029.22 1034.29 1036.41 6999.00
  14  6999.00 1005.81 1011.48 1016.19 1021.23 1026.06 1030.48 1035.38 1039.51 6999.00
  15  6999.00 6999.00 1018.83 1021.82 1025.56 1028.54 6999.00 6999.00 6999.00 6999.00

 HEAD WILL BE SAVED ON UNIT   58 AT END OF TIME STEP  15, STRESS PERIOD    2
1
  VOLUMETRIC BUDGET FOR ENTIRE MODEL AT END OF TIME STEP 15 IN STRESS PERIOD   2
  ------------------------------------------------------------------------------

     CUMULATIVE VOLUMES      L**3       RATES FOR THIS TIME STEP      L**3/T
     ------------------                 ------------------------

           IN:                                      IN:
           ---                                      ---
             STORAGE =       47233.4805               STORAGE =       2.0105E-02
       CONSTANT HEAD =           0.0000         CONSTANT HEAD =           0.0000
               WELLS =           0.0000                 WELLS =           0.0000
     HEAD DEP BOUNDS =     1100430.3750       HEAD DEP BOUNDS =           0.2084
        UZF RECHARGE =    46551744.0000          UZF RECHARGE =           9.0485
               GW ET =           0.0000                 GW ET =           0.0000
     SURFACE LEAKAGE =           0.0000       SURFACE LEAKAGE =           0.0000
      STREAM LEAKAGE =   230787760.0000        STREAM LEAKAGE =          43.4324

            TOTAL IN =   278487168.0000              TOTAL IN =          52.7095

          OUT:                                     OUT:
          ----                                     ----
             STORAGE =    16970616.0000               STORAGE =           5.4450
       CONSTANT HEAD =           0.0000         CONSTANT HEAD =           0.0000
               WELLS =   105120000.0000                 WELLS =          20.0000
     HEAD DEP BOUNDS =     1375227.2500       HEAD DEP BOUNDS =           0.2626
        UZF RECHARGE =           0.0000          UZF RECHARGE =           0.0000
               GW ET =    89666808.0000                 GW ET =          13.7898
     SURFACE LEAKAGE =           0.0000       SURFACE LEAKAGE =           0.0000
      STREAM LEAKAGE =    65256340.0000        STREAM LEAKAGE =          13.1745

           TOTAL OUT =   278388992.0000             TOTAL OUT =          52.6719

            IN - OUT =       98176.0000              IN - OUT =       3.7521E-02

 PERCENT DISCREPANCY =           0.04     PERCENT DISCREPANCY =           0.07






          TIME SUMMARY AT END OF TIME STEP  15 IN STRESS PERIOD    2
                    SECONDS     MINUTES      HOURS       DAYS        YEARS
                    -----------------------------------------------------------
   TIME STEP LENGTH 3.14103E+05  5235.0      87.251      3.6354     9.95332E-03
 STRESS PERIOD TIME 2.62800E+06  43800.      730.00      30.417     8.32763E-02
         TOTAL TIME 5.25600E+06  87600.      1460.0      60.833     0.16655    
1
1
                            STRESS PERIOD NO.    3, LENGTH =   2628000.    
                            -----------------------------------------------

                              NUMBER OF TIME STEPS =    15

                               MULTIPLIER FOR DELT =     1.100

                            INITIAL TIME STEP SIZE =   82713.07    

 WELL NO.  LAYER   ROW   COL   STRESS RATE         
 --------------------------------------------------
      1      1      6      4      -1.000    
      2      1      6      5      -1.000    
      3      1      7      4      -1.000    
      4      1      7      5      -1.000    
      5      1      8      4      -1.000    
      6      1      8      5      -1.000    
      7      1      9      4      -1.000    
      8      1      9      5      -1.000    
      9      1     10      4      -1.000    
     10      1     10      5      -1.000    

     10 WELLS

 REUSING NON-PARAMETER GHB CELLS FROM LAST STRESS PERIOD

      2 GHB CELLS

 REUSING STREAM SEGMENT DATA FROM LAST STRESS PERIOD



            AREAL INFILTRATION RATE
 READING ON UNIT   19 WITH FORMAT: (10F4.0)            

            1           2           3           4           5           6           7           8           9          10
 ........................................................................................................................
   1   1.0000E-08  2.0000E-08   0.000       0.000       0.000       0.000       0.000       0.000       0.000       0.000    
   2   2.0000E-08  1.0000E-08  2.0000E-08   0.000       0.000      8.0000E-08  8.0000E-08  5.0000E-08   0.000       0.000    
   3    0.000      5.0000E-08  1.0000E-08  1.0000E-08  8.0000E-08  8.0000E-08  5.0000E-08  5.0000E-08   0.000       0.000    
   4   8.0000E-08  5.0000E-08  1.0000E-08  1.0000E-08  1.0000E-08  1.0000E-08  1.0000E-08  1.0000E-08  2.0000E-08   0.000    
   5   8.0000E-08  5.0000E-08  1.0000E-08  1.0000E-08  1.0000E-08  1.0000E-08  1.0000E-08  1.0000E-08  1.0000E-08  1.0000E-08
   6   8.0000E-08  5.0000E-08  5.0000E-08  2.0000E-08  2.0000E-08  1.0000E-08  1.0000E-08  1.0000E-08  1.0000E-08  5.0000E-08
   7   8.0000E-08  5.0000E-08  5.0000E-08  2.0000E-08  2.0000E-08  1.0000E-08  1.0000E-08  2.0000E-08  2.0000E-08   0.000    
   8    0.000      5.0000E-08  5.0000E-08  2.0000E-08  2.0000E-08  1.0000E-08  1.0000E-08  2.0000E-08  5.0000E-08   0.000    
   9    0.000      5.0000E-08  5.0000E-08  2.0000E-08  2.0000E-08  1.0000E-08  1.0000E-08  2.0000E-08  5.0000E-08   0.000    
  10    0.000      5.0000E-08  5.0000E-08  2.0000E-08  2.0000E-08  1.0000E-08  1.0000E-08  2.0000E-08  5.0000E-08  8.0000E-08
  11    0.000      1.0000E-08  1.0000E-08  1.0000E-08  1.0000E-08  1.0000E-08  1.0000E-08  2.0000E-08  5.0000E-08   0.000    
  12   1.0000E-08  1.0000E-08  1.0000E-08  1.0000E-08  1.0000E-08  1.0000E-08  1.0000E-08  1.0000E-08  2.0000E-08   0.000    
  13   1.0000E-08  1.0000E-08  2.0000E-08  2.0000E-08  2.0000E-08  2.0000E-08  2.0000E-08  1.0000E-08  1.0000E-08   0.000    
  14    0.000      2.0000E-08  5.0000E-08  5.0000E-08  5.0000E-08  5.0000E-08  5.0000E-08  2.0000E-08  1.0000E-08   0.000    
  15    0.000       0.000      8.0000E-08  8.0000E-08  8.0000E-08  8.0000E-08   0.000       0.000       0.000       0.000    

USING ET RATE FROM PREVIOUS STRESS PERIOD. CURRENT PERIOD IS:       3

 USING ET EXTINCTION DEPTH FROM PREVIOUS STRESS PERIOD. CURRENT PERIOD IS:       3

 USING EXTINCTION WATER CONTENT FROM PREVIOUS STRESS PERIOD. CURRENT PERIOD IS:       3
 
 SOLVING FOR HEAD 

     5 ITERATIONS FOR TIME STEP   1 IN STRESS PERIOD    3

 MAXIMUM HEAD CHANGE FOR EACH ITERATION:

    HEAD CHANGE   HEAD CHANGE   HEAD CHANGE   HEAD CHANGE   HEAD CHANGE
  LAYER,ROW,COL LAYER,ROW,COL LAYER,ROW,COL LAYER,ROW,COL LAYER,ROW,COL
 ----------------------------------------------------------------------
     0.1339E-01    0.4437E-02    0.1497E-02    0.5055E-03    0.1890E-03
  (  1, 10,  5) (  1, 10,  4) (  1,  8,  4) (  1,  8,  4) (  1, 10,  5)


 OUTPUT CONTROL FOR STRESS PERIOD    3   TIME STEP   1
    PRINT BUDGET
    SAVE BUDGET

            WELLS   PERIOD    3   STEP   1
 WELL      1   LAYER   1   ROW     6   COL     4   RATE    -1.00000    
 WELL      2   LAYER   1   ROW     6   COL     5   RATE    -1.00000    
 WELL      3   LAYER   1   ROW     7   COL     4   RATE    -1.00000    
 WELL      4   LAYER   1   ROW     7   COL     5   RATE    -1.00000    
 WELL      5   LAYER   1   ROW     8   COL     4   RATE    -1.00000    
 WELL      6   LAYER   1   ROW     8   COL     5   RATE    -1.00000    
 WELL      7   LAYER   1   ROW     9   COL     4   RATE    -1.00000    
 WELL      8   LAYER   1   ROW     9   COL     5   RATE    -1.00000    
 WELL      9   LAYER   1   ROW    10   COL     4   RATE    -1.00000    
 WELL     10   LAYER   1   ROW    10   COL     5   RATE    -1.00000    

  HEAD DEP BOUNDS   PERIOD    3   STEP   1
 BOUNDARY      1   LAYER   1   ROW    13   COL     1   RATE   -0.262623    
 BOUNDARY      2   LAYER   1   ROW    14   COL     9   RATE    0.208430    
 UBDSV3 SAVING "           GW ET" ON UNIT  61 AT TIME STEP  1, STRESS PERIOD   3
 UBDSV3 SAVING "    UZF INFILTR." ON UNIT  61 AT TIME STEP  1, STRESS PERIOD   3
 UBDSV3 SAVING "    UZF RECHARGE" ON UNIT  61 AT TIME STEP  1, STRESS PERIOD   3
 UBDSV3 SAVING " SURFACE LEAKAGE" ON UNIT  61 AT TIME STEP  1, STRESS PERIOD   3


UNSATURATED ZONE PACKAGE VOLUMETRIC BUDGET FOR  TIME STEP    1 STRESS PERIOD    3
  ------------------------------------------------------------------------------



     CUMULATIVE VOLUMES      L**3       RATES FOR THIS TIME STEP      L**3/T
     ------------------                 ------------------------

           IN:                                      IN:
           ---                                      ---
        INFILTRATION =   207460614.4503          INFILTRATION =          84.7500

          OUT:                                     OUT:
          ----                                     ----
              UZF ET =   337243356.3696                UZF ET =         124.2816
        UZF RECHARGE =    47457786.4577          UZF RECHARGE =          10.9540

            IN - OUT =  -177240528.3770              IN - OUT =         -50.4857

          STORAGE:                                 STORAGE:
          --------                                 --------
      STORAGE CHANGE =  -177194285.7482        STORAGE CHANGE =         -50.4798

 PERCENT DISCREPANCY IS DIFFERENCE BETWEEN IN-OUT MINUS CHANGE IN STORAGE
 DIVIDED BY THE AVERAGE OF IN AND OUT TIMES 100

 PERCENT DISCREPANCY =           0.00     PERCENT DISCREPANCY =           0.00









 STREAM LISTING     PERIOD      3   STEP        1

 LAYER ROW COL. STREAM  RCH.  FLOW INTO     FLOW TO   FLOW OUT OF   OVRLND.     DIRECT     STREAM       STREAM     STREAM     STREAM   STREAMBED  STREAMBED
                SEG.NO.  NO.  STRM. RCH.    AQUIFER    STRM. RCH.    RUNOFF     PRECIP       ET          HEAD       DEPTH      WIDTH   CONDCTNC.   GRADIENT

   1    1    1     1     1    2.5000E+01  1.0287E+00   2.3971E+01  0.000E+00  0.000E+00  0.000E+00  1.09422E+03  1.172E+00  1.296E+01  5.832E-01  5.880E-01
   1    2    2     1     2    2.3971E+01  3.0615E+00   2.0910E+01  0.000E+00  0.000E+00  0.000E+00  1.08920E+03  1.141E+00  1.254E+01  8.776E-01  1.163E+00
   1    3    3     1     3    2.0910E+01  2.9056E+00   1.8004E+01  0.000E+00  0.000E+00  0.000E+00  1.08351E+03  1.091E+00  1.184E+01  7.102E-01  1.364E+00
   1    3    4     1     4    1.8004E+01  2.4681E+00   1.5536E+01  0.000E+00  0.000E+00  0.000E+00  1.07845E+03  1.045E+00  1.099E+01  6.101E-01  1.348E+00
   1    4    5     2     1    5.5360E+00  2.6632E+00   2.8728E+00  0.000E+00  0.000E+00  0.000E+00  1.07235E+03  4.143E-01  1.200E+01  7.800E-01  1.138E+00
   1    5    6     2     2    2.8728E+00  1.9542E+00   9.1865E-01  0.000E+00  0.000E+00  0.000E+00  1.06677E+03  2.569E-01  1.200E+01  6.000E-01  1.086E+00
   1    6    6     2     3    9.1865E-01  9.1865E-01   0.0000E+00  0.000E+00  0.000E+00  0.000E+00  1.06180E+03  9.357E-03  1.200E+01  6.000E-01  1.003E+00
   1    7    6     2     4    0.0000E+00  0.0000E+00   0.0000E+00  0.000E+00  0.000E+00  0.000E+00  1.05708E+03  0.000E+00  1.200E+01  6.000E-01  1.000E+00
   1    8    6     2     5    0.0000E+00  0.0000E+00   0.0000E+00  0.000E+00  0.000E+00  0.000E+00  1.05236E+03  0.000E+00  1.200E+01  6.000E-01  1.000E+00
   1    3    5     3     1    1.0000E+01  2.8252E+00   7.1748E+00  0.000E+00  0.000E+00  0.000E+00  1.07555E+03  1.909E+00  9.636E+00  7.227E-01  1.955E+00
   1    3    6     3     2    7.1748E+00  2.1844E+00   4.9904E+00  0.000E+00  0.000E+00  0.000E+00  1.07264E+03  1.727E+00  8.909E+00  6.682E-01  1.635E+00
   1    3    7     3     3    4.9904E+00  1.0808E+00   3.9096E+00  0.000E+00  0.000E+00  0.000E+00  1.06987E+03  1.555E+00  8.218E+00  5.547E-01  9.742E-01
   1    4    8     3     4    3.9096E+00  1.5678E+00   2.3418E+00  0.000E+00  0.000E+00  0.000E+00  1.06682E+03  1.364E+00  7.455E+00  6.709E-01  1.168E+00
   1    5    8     3     5    2.3418E+00  1.5790E+00   7.6288E-01  0.000E+00  0.000E+00  0.000E+00  1.06362E+03  1.164E+00  6.655E+00  4.991E-01  1.582E+00
   1    6    8     3     6    7.6288E-01  5.5980E-01   2.0308E-01  0.000E+00  0.000E+00  0.000E+00  1.06158E+03  1.036E+00  6.145E+00  1.844E-01  1.518E+00
   1    5   10     4     1    1.0000E+01  9.0525E-01   9.0947E+00  0.000E+00  0.000E+00  0.000E+00  1.07835E+03  6.210E-01  1.000E+01  2.500E-01  1.207E+00
   1    5    9     4     2    9.0947E+00  1.7835E+00   7.3113E+00  0.000E+00  0.000E+00  0.000E+00  1.07148E+03  5.670E-01  1.000E+01  5.000E-01  1.189E+00
   1    6    8     4     3    7.3113E+00  1.2257E+00   6.0855E+00  0.000E+00  0.000E+00  0.000E+00  1.06368E+03  5.021E-01  1.000E+01  3.500E-01  1.167E+00
   1    6    8     5     1    6.2886E+00  9.9759E-01   5.2910E+00  0.000E+00  0.000E+00  0.000E+00  1.05855E+03  5.547E-01  1.090E+01  4.360E-01  7.628E-01
   1    7    7     5     2    5.2910E+00  1.6368E+00   3.6542E+00  0.000E+00  0.000E+00  0.000E+00  1.05401E+03  5.068E-01  9.335E+00  4.668E-01  1.169E+00
   1    8    7     5     3    3.6542E+00  9.2109E-01   2.7331E+00  0.000E+00  0.000E+00  0.000E+00  1.04970E+03  4.504E-01  7.627E+00  2.669E-01  1.150E+00
   1    8    6     5     4    2.7331E+00  5.5547E-01   2.1777E+00  0.000E+00  0.000E+00  0.000E+00  1.04666E+03  4.108E-01  6.514E+00  1.629E-01  1.137E+00
   1    9    6     6     1    2.1777E+00  1.9195E+00   2.5812E-01  0.000E+00  0.000E+00  0.000E+00  1.04293E+03  1.992E-01  1.200E+01  6.000E-01  1.066E+00
   1   10    7     6     2    2.5812E-01  2.5812E-01   0.0000E+00  0.000E+00  0.000E+00  0.000E+00  1.03820E+03  1.767E-02  1.200E+01  6.000E-01  1.006E+00
   1   11    7     6     3    0.0000E+00  0.0000E+00   0.0000E+00  0.000E+00  0.000E+00  0.000E+00  1.03364E+03  0.000E+00  1.200E+01  6.000E-01  1.000E+00
   1   12    7     6     4    0.0000E+00  0.0000E+00   0.0000E+00  0.000E+00  0.000E+00  0.000E+00  1.02909E+03  0.000E+00  1.200E+01  6.000E-01  3.735E-01
   1   13    7     6     5    0.0000E+00 -7.9363E-01   7.9363E-01  0.000E+00  0.000E+00  0.000E+00  1.02591E+03  0.000E+00  1.200E+01  2.400E-01 -1.102E+00
   1   14    9     7     1    1.5000E+02  1.9670E+00   1.4803E+02  0.000E+00  0.000E+00  0.000E+00  1.03987E+03  2.286E+00  5.529E+01  5.592E+00  1.172E-01
   1   13    8     7     2    1.4803E+02  2.9924E+00   1.4504E+02  0.000E+00  0.000E+00  0.000E+00  1.03477E+03  2.273E+00  5.523E+01  6.144E+00  1.623E-01
   1   13    7     7     3    1.4504E+02  2.5736E+00   1.4247E+02  0.000E+00  0.000E+00  0.000E+00  1.02968E+03  2.258E+00  5.516E+01  5.578E+00  1.538E-01
   1   13    6     8     1    1.4326E+02  8.9370E-01   1.4237E+02  0.000E+00  0.000E+00  0.000E+00  1.02464E+03  2.765E+00  4.010E+01  4.086E+00  7.290E-02
   1   13    5     8     2    1.4237E+02 -1.9923E+00   1.4436E+02  0.000E+00  0.000E+00  0.000E+00  1.01839E+03  2.769E+00  4.016E+01  4.092E+00 -1.623E-01
   1   13    4     8     3    1.4436E+02 -3.7686E+00   1.4813E+02  0.000E+00  0.000E+00  0.000E+00  1.01217E+03  2.790E+00  4.046E+01  4.123E+00 -3.047E-01
   1   13    3     8     4    1.4813E+02 -4.0915E+00   1.5222E+02  0.000E+00  0.000E+00  0.000E+00  1.00594E+03  2.818E+00  4.086E+01  4.164E+00 -3.275E-01
   1   13    2     8     5    1.5222E+02 -2.0763E+00   1.5430E+02  0.000E+00  0.000E+00  0.000E+00  9.99715E+02  2.840E+00  4.117E+01  4.196E+00 -1.650E-01
   1   13    1     8     6    1.5430E+02 -4.7395E-01   1.5477E+02  0.000E+00  0.000E+00  0.000E+00  9.94723E+02  2.848E+00  4.130E+01  2.525E+00 -6.256E-02



1
  VOLUMETRIC BUDGET FOR ENTIRE MODEL AT END OF TIME STEP  1 IN STRESS PERIOD   3
  ------------------------------------------------------------------------------

     CUMULATIVE VOLUMES      L**3       RATES FOR THIS TIME STEP      L**3/T
     ------------------                 ------------------------

           IN:                                      IN:
           ---                                      ---
             STORAGE =       49869.4883               STORAGE =       3.1869E-02
       CONSTANT HEAD =           0.0000         CONSTANT HEAD =           0.0000
               WELLS =           0.0000                 WELLS =           0.0000
     HEAD DEP BOUNDS =     1117670.2500       HEAD DEP BOUNDS =           0.2084
        UZF RECHARGE =    47457784.0000          UZF RECHARGE =          10.9540
               GW ET =           0.0000                 GW ET =           0.0000
     SURFACE LEAKAGE =           0.0000       SURFACE LEAKAGE =           0.0000
      STREAM LEAKAGE =   234379712.0000        STREAM LEAKAGE =          43.4267

            TOTAL IN =   283005024.0000              TOTAL IN =          54.6210

          OUT:                                     OUT:
          ----                                     ----
             STORAGE =    18390496.0000               STORAGE =          17.1663
       CONSTANT HEAD =           0.0000         CONSTANT HEAD =           0.0000
               WELLS =   105947128.0000                 WELLS =          10.0000
     HEAD DEP BOUNDS =     1396949.6250       HEAD DEP BOUNDS =           0.2626
        UZF RECHARGE =           0.0000          UZF RECHARGE =           0.0000
               GW ET =    90808432.0000                 GW ET =          13.8022
     SURFACE LEAKAGE =           0.0000       SURFACE LEAKAGE =           0.0000
      STREAM LEAKAGE =    66347840.0000        STREAM LEAKAGE =          13.1962

           TOTAL OUT =   282890848.0000             TOTAL OUT =          54.4274

            IN - OUT =      114176.0000              IN - OUT =           0.1936

 PERCENT DISCREPANCY =           0.04     PERCENT DISCREPANCY =           0.36






          TIME SUMMARY AT END OF TIME STEP   1 IN STRESS PERIOD    3
                    SECONDS     MINUTES      HOURS       DAYS        YEARS
                    -----------------------------------------------------------
   TIME STEP LENGTH  82713.      1378.6      22.976     0.95733     2.62102E-03
 STRESS PERIOD TIME  82713.      1378.6      22.976     0.95733     2.62102E-03
         TOTAL TIME 5.33871E+06  88979.      1483.0      61.791     0.16917    
1
 
 SOLVING FOR HEAD 
     5 ITERATIONS FOR TIME STEP   2 IN STRESS PERIOD    3

 MAXIMUM HEAD CHANGE FOR EACH ITERATION:

    HEAD CHANGE   HEAD CHANGE   HEAD CHANGE   HEAD CHANGE   HEAD CHANGE
  LAYER,ROW,COL LAYER,ROW,COL LAYER,ROW,COL LAYER,ROW,COL LAYER,ROW,COL
 ----------------------------------------------------------------------
     0.1449E-01    0.4826E-02    0.1644E-02    0.5553E-03    0.1677E-03
  (  1,  9,  4) (  1,  9,  4) (  1,  9,  4) (  1,  9,  4) (  1,  9,  4)


 NO OUTPUT CONTROL FOR STRESS PERIOD    3   TIME STEP   2
 
 SOLVING FOR HEAD 
     9 ITERATIONS FOR TIME STEP   3 IN STRESS PERIOD    3

 MAXIMUM HEAD CHANGE FOR EACH ITERATION:

    HEAD CHANGE   HEAD CHANGE   HEAD CHANGE   HEAD CHANGE   HEAD CHANGE
  LAYER,ROW,COL LAYER,ROW,COL LAYER,ROW,COL LAYER,ROW,COL LAYER,ROW,COL
 ----------------------------------------------------------------------
     0.2916E-01    0.1495E-01    0.7635E-02    0.3909E-02    0.2033E-02
  (  1,  3,  6) (  1,  3,  6) (  1,  3,  6) (  1,  3,  6) (  1,  3,  6)
     0.1002E-02    0.4982E-03    0.2783E-03    0.1748E-03
  (  1,  3,  6) (  1,  3,  6) (  1,  3,  6) (  1,  3,  6)


 NO OUTPUT CONTROL FOR STRESS PERIOD    3   TIME STEP   3
 
 SOLVING FOR HEAD 
     9 ITERATIONS FOR TIME STEP   4 IN STRESS PERIOD    3

 MAXIMUM HEAD CHANGE FOR EACH ITERATION:

    HEAD CHANGE   HEAD CHANGE   HEAD CHANGE   HEAD CHANGE   HEAD CHANGE
  LAYER,ROW,COL LAYER,ROW,COL LAYER,ROW,COL LAYER,ROW,COL LAYER,ROW,COL
 ----------------------------------------------------------------------
     0.3282E-01    0.1680E-01    0.8577E-02    0.4389E-02    0.2247E-02
  (  1,  3,  6) (  1,  3,  6) (  1,  3,  6) (  1,  3,  6) (  1,  3,  6)
     0.1102E-02    0.6114E-03    0.2527E-03    0.1809E-03
  (  1,  3,  6) (  1,  3,  6) (  1,  3,  6) (  1,  3,  6)


 NO OUTPUT CONTROL FOR STRESS PERIOD    3   TIME STEP   4
 
 SOLVING FOR HEAD 
     9 ITERATIONS FOR TIME STEP   5 IN STRESS PERIOD    3

 MAXIMUM HEAD CHANGE FOR EACH ITERATION:

    HEAD CHANGE   HEAD CHANGE   HEAD CHANGE   HEAD CHANGE   HEAD CHANGE
  LAYER,ROW,COL LAYER,ROW,COL LAYER,ROW,COL LAYER,ROW,COL LAYER,ROW,COL
 ----------------------------------------------------------------------
     0.3303E-01    0.1682E-01    0.8576E-02    0.4358E-02    0.2228E-02
  (  1,  3,  6) (  1,  3,  6) (  1,  3,  6) (  1,  3,  6) (  1,  3,  6)
     0.1160E-02    0.5889E-03    0.2604E-03    0.1234E-03
  (  1,  3,  6) (  1,  3,  6) (  1,  3,  6) (  1,  3,  6)


 OUTPUT CONTROL FOR STRESS PERIOD    3   TIME STEP   5
    PRINT BUDGET
    SAVE BUDGET

            WELLS   PERIOD    3   STEP   5
 WELL      1   LAYER   1   ROW     6   COL     4   RATE    -1.00000    
 WELL      2   LAYER   1   ROW     6   COL     5   RATE    -1.00000    
 WELL      3   LAYER   1   ROW     7   COL     4   RATE    -1.00000    
 WELL      4   LAYER   1   ROW     7   COL     5   RATE    -1.00000    
 WELL      5   LAYER   1   ROW     8   COL     4   RATE    -1.00000    
 WELL      6   LAYER   1   ROW     8   COL     5   RATE    -1.00000    
 WELL      7   LAYER   1   ROW     9   COL     4   RATE    -1.00000    
 WELL      8   LAYER   1   ROW     9   COL     5   RATE    -1.00000    
 WELL      9   LAYER   1   ROW    10   COL     4   RATE    -1.00000    
 WELL     10   LAYER   1   ROW    10   COL     5   RATE    -1.00000    

  HEAD DEP BOUNDS   PERIOD    3   STEP   5
 BOUNDARY      1   LAYER   1   ROW    13   COL     1   RATE   -0.262709    
 BOUNDARY      2   LAYER   1   ROW    14   COL     9   RATE    0.208401    
 UBDSV3 SAVING "           GW ET" ON UNIT  61 AT TIME STEP  5, STRESS PERIOD   3
 UBDSV3 SAVING "    UZF INFILTR." ON UNIT  61 AT TIME STEP  5, STRESS PERIOD   3
 UBDSV3 SAVING "    UZF RECHARGE" ON UNIT  61 AT TIME STEP  5, STRESS PERIOD   3
 UBDSV3 SAVING " SURFACE LEAKAGE" ON UNIT  61 AT TIME STEP  5, STRESS PERIOD   3


UNSATURATED ZONE PACKAGE VOLUMETRIC BUDGET FOR  TIME STEP    5 STRESS PERIOD    3
  ------------------------------------------------------------------------------



     CUMULATIVE VOLUMES      L**3       RATES FOR THIS TIME STEP      L**3/T
     ------------------                 ------------------------

           IN:                                      IN:
           ---                                      ---
        INFILTRATION =   243247023.6758          INFILTRATION =          84.7500

          OUT:                                     OUT:
          ----                                     ----
              UZF ET =   389713323.4204                UZF ET =         124.2438
        UZF RECHARGE =    52625498.6485          UZF RECHARGE =          12.7465

            IN - OUT =  -199091798.3931              IN - OUT =         -52.2403

          STORAGE:                                 STORAGE:
          --------                                 --------
      STORAGE CHANGE =  -199040432.6205        STORAGE CHANGE =         -52.2250

 PERCENT DISCREPANCY IS DIFFERENCE BETWEEN IN-OUT MINUS CHANGE IN STORAGE
 DIVIDED BY THE AVERAGE OF IN AND OUT TIMES 100

 PERCENT DISCREPANCY =           0.00     PERCENT DISCREPANCY =          -0.01









 STREAM LISTING     PERIOD      3   STEP        5

 LAYER ROW COL. STREAM  RCH.  FLOW INTO     FLOW TO   FLOW OUT OF   OVRLND.     DIRECT     STREAM       STREAM     STREAM     STREAM   STREAMBED  STREAMBED
                SEG.NO.  NO.  STRM. RCH.    AQUIFER    STRM. RCH.    RUNOFF     PRECIP       ET          HEAD       DEPTH      WIDTH   CONDCTNC.   GRADIENT

   1    1    1     1     1    2.5000E+01  1.0234E+00   2.3977E+01  0.000E+00  0.000E+00  0.000E+00  1.09422E+03  1.173E+00  1.296E+01  5.832E-01  5.849E-01
   1    2    2     1     2    2.3977E+01  3.0539E+00   2.0923E+01  0.000E+00  0.000E+00  0.000E+00  1.08920E+03  1.141E+00  1.254E+01  8.777E-01  1.160E+00
   1    3    3     1     3    2.0923E+01  2.9067E+00   1.8016E+01  0.000E+00  0.000E+00  0.000E+00  1.08351E+03  1.091E+00  1.184E+01  7.104E-01  1.364E+00
   1    3    4     1     4    1.8016E+01  2.4691E+00   1.5547E+01  0.000E+00  0.000E+00  0.000E+00  1.07845E+03  1.046E+00  1.100E+01  6.103E-01  1.349E+00
   1    4    5     2     1    5.5469E+00  2.6637E+00   2.8832E+00  0.000E+00  0.000E+00  0.000E+00  1.07235E+03  4.150E-01  1.200E+01  7.800E-01  1.138E+00
   1    5    6     2     2    2.8832E+00  1.9547E+00   9.2854E-01  0.000E+00  0.000E+00  0.000E+00  1.06677E+03  2.578E-01  1.200E+01  6.000E-01  1.086E+00
   1    6    6     2     3    9.2854E-01  9.2854E-01   0.0000E+00  0.000E+00  0.000E+00  0.000E+00  1.06180E+03  9.418E-03  1.200E+01  6.000E-01  1.003E+00
   1    7    6     2     4    0.0000E+00  0.0000E+00   0.0000E+00  0.000E+00  0.000E+00  0.000E+00  1.05708E+03  0.000E+00  1.200E+01  6.000E-01  1.000E+00
   1    8    6     2     5    0.0000E+00  0.0000E+00   0.0000E+00  0.000E+00  0.000E+00  0.000E+00  1.05236E+03  0.000E+00  1.200E+01  6.000E-01  1.000E+00
   1    3    5     3     1    1.0000E+01  2.8252E+00   7.1748E+00  0.000E+00  0.000E+00  0.000E+00  1.07555E+03  1.909E+00  9.636E+00  7.227E-01  1.955E+00
   1    3    6     3     2    7.1748E+00  2.0548E+00   5.1200E+00  0.000E+00  0.000E+00  0.000E+00  1.07264E+03  1.727E+00  8.909E+00  6.682E-01  1.538E+00
   1    3    7     3     3    5.1200E+00  1.0723E+00   4.0478E+00  0.000E+00  0.000E+00  0.000E+00  1.06987E+03  1.555E+00  8.218E+00  5.547E-01  9.665E-01
   1    4    8     3     4    4.0478E+00  1.5596E+00   2.4881E+00  0.000E+00  0.000E+00  0.000E+00  1.06682E+03  1.364E+00  7.455E+00  6.709E-01  1.162E+00
   1    5    8     3     5    2.4881E+00  1.5790E+00   9.0915E-01  0.000E+00  0.000E+00  0.000E+00  1.06362E+03  1.164E+00  6.655E+00  4.991E-01  1.582E+00
   1    6    8     3     6    9.0915E-01  5.5980E-01   3.4935E-01  0.000E+00  0.000E+00  0.000E+00  1.06158E+03  1.036E+00  6.145E+00  1.844E-01  1.518E+00
   1    5   10     4     1    1.0000E+01  9.0525E-01   9.0947E+00  0.000E+00  0.000E+00  0.000E+00  1.07835E+03  6.210E-01  1.000E+01  2.500E-01  1.207E+00
   1    5    9     4     2    9.0947E+00  1.7835E+00   7.3113E+00  0.000E+00  0.000E+00  0.000E+00  1.07148E+03  5.670E-01  1.000E+01  5.000E-01  1.189E+00
   1    6    8     4     3    7.3113E+00  1.2257E+00   6.0855E+00  0.000E+00  0.000E+00  0.000E+00  1.06368E+03  5.021E-01  1.000E+01  3.500E-01  1.167E+00
   1    6    8     5     1    6.4349E+00  1.0080E+00   5.4269E+00  0.000E+00  0.000E+00  0.000E+00  1.05856E+03  5.594E-01  1.106E+01  4.423E-01  7.597E-01
   1    7    7     5     2    5.4269E+00  1.6656E+00   3.7613E+00  0.000E+00  0.000E+00  0.000E+00  1.05401E+03  5.116E-01  9.486E+00  4.743E-01  1.171E+00
   1    8    7     5     3    3.7613E+00  9.3924E-01   2.8221E+00  0.000E+00  0.000E+00  0.000E+00  1.04971E+03  4.552E-01  7.767E+00  2.718E-01  1.152E+00
   1    8    6     5     4    2.8221E+00  5.6744E-01   2.2546E+00  0.000E+00  0.000E+00  0.000E+00  1.04667E+03  4.156E-01  6.645E+00  1.661E-01  1.139E+00
   1    9    6     6     1    2.2546E+00  1.9239E+00   3.3074E-01  0.000E+00  0.000E+00  0.000E+00  1.04293E+03  2.065E-01  1.200E+01  6.000E-01  1.069E+00
   1   10    7     6     2    3.3074E-01  3.3074E-01   0.0000E+00  0.000E+00  0.000E+00  0.000E+00  1.03820E+03  2.050E-02  1.200E+01  6.000E-01  1.007E+00
   1   11    7     6     3    0.0000E+00  0.0000E+00   0.0000E+00  0.000E+00  0.000E+00  0.000E+00  1.03364E+03  0.000E+00  1.200E+01  6.000E-01  1.000E+00
   1   12    7     6     4    0.0000E+00  0.0000E+00   0.0000E+00  0.000E+00  0.000E+00  0.000E+00  1.02909E+03  0.000E+00  1.200E+01  6.000E-01  3.682E-01
   1   13    7     6     5    0.0000E+00 -7.9392E-01   7.9392E-01  0.000E+00  0.000E+00  0.000E+00  1.02591E+03  0.000E+00  1.200E+01  2.400E-01 -1.103E+00
   1   14    9     7     1    1.5000E+02  1.9627E+00   1.4804E+02  0.000E+00  0.000E+00  0.000E+00  1.03987E+03  2.286E+00  5.529E+01  5.592E+00  1.170E-01
   1   13    8     7     2    1.4804E+02  2.9847E+00   1.4505E+02  0.000E+00  0.000E+00  0.000E+00  1.03477E+03  2.273E+00  5.523E+01  6.144E+00  1.619E-01
   1   13    7     7     3    1.4505E+02  2.5674E+00   1.4249E+02  0.000E+00  0.000E+00  0.000E+00  1.02968E+03  2.258E+00  5.516E+01  5.578E+00  1.534E-01
   1   13    6     8     1    1.4328E+02  8.8242E-01   1.4240E+02  0.000E+00  0.000E+00  0.000E+00  1.02464E+03  2.766E+00  4.010E+01  4.086E+00  7.198E-02
   1   13    5     8     2    1.4240E+02 -2.0216E+00   1.4442E+02  0.000E+00  0.000E+00  0.000E+00  1.01839E+03  2.770E+00  4.016E+01  4.093E+00 -1.647E-01
   1   13    4     8     3    1.4442E+02 -3.7979E+00   1.4822E+02  0.000E+00  0.000E+00  0.000E+00  1.01217E+03  2.791E+00  4.047E+01  4.124E+00 -3.070E-01
   1   13    3     8     4    1.4822E+02 -4.1157E+00   1.5233E+02  0.000E+00  0.000E+00  0.000E+00  1.00594E+03  2.819E+00  4.087E+01  4.165E+00 -3.294E-01
   1   13    2     8     5    1.5233E+02 -2.0832E+00   1.5442E+02  0.000E+00  0.000E+00  0.000E+00  9.99715E+02  2.840E+00  4.119E+01  4.197E+00 -1.655E-01
   1   13    1     8     6    1.5442E+02 -4.7766E-01   1.5489E+02  0.000E+00  0.000E+00  0.000E+00  9.94724E+02  2.849E+00  4.131E+01  2.526E+00 -6.303E-02



1
  VOLUMETRIC BUDGET FOR ENTIRE MODEL AT END OF TIME STEP  5 IN STRESS PERIOD   3
  ------------------------------------------------------------------------------

     CUMULATIVE VOLUMES      L**3       RATES FOR THIS TIME STEP      L**3/T
     ------------------                 ------------------------

           IN:                                      IN:
           ---                                      ---
             STORAGE =       63772.7930               STORAGE =       3.2632E-02
       CONSTANT HEAD =           0.0000         CONSTANT HEAD =           0.0000
               WELLS =           0.0000                 WELLS =           0.0000
     HEAD DEP BOUNDS =     1205673.2500       HEAD DEP BOUNDS =           0.2084
        UZF RECHARGE =    52625496.0000          UZF RECHARGE =          12.7465
               GW ET =           0.0000                 GW ET =           0.0000
     SURFACE LEAKAGE =           0.0000       SURFACE LEAKAGE =           0.0000
      STREAM LEAKAGE =   252709072.0000        STREAM LEAKAGE =          43.3973

            TOTAL IN =   306604000.0000              TOTAL IN =          56.3848

          OUT:                                     OUT:
          ----                                     ----
             STORAGE =    26179362.0000               STORAGE =          18.9063
       CONSTANT HEAD =           0.0000         CONSTANT HEAD =           0.0000
               WELLS =   110169712.0000                 WELLS =          10.0000
     HEAD DEP BOUNDS =     1507867.7500       HEAD DEP BOUNDS =           0.2627
        UZF RECHARGE =           0.0000          UZF RECHARGE =           0.0000
               GW ET =    96645944.0000                 GW ET =          13.8416
     SURFACE LEAKAGE =           0.0000       SURFACE LEAKAGE =           0.0000
      STREAM LEAKAGE =    71944960.0000        STREAM LEAKAGE =          13.2900

           TOTAL OUT =   306447840.0000             TOTAL OUT =          56.3005

            IN - OUT =      156160.0000              IN - OUT =       8.4225E-02

 PERCENT DISCREPANCY =           0.05     PERCENT DISCREPANCY =           0.15






          TIME SUMMARY AT END OF TIME STEP   5 IN STRESS PERIOD    3
                    SECONDS     MINUTES      HOURS       DAYS        YEARS
                    -----------------------------------------------------------
   TIME STEP LENGTH 1.21100E+05  2018.3      33.639      1.4016     3.83743E-03
 STRESS PERIOD TIME 5.04972E+05  8416.2      140.27      5.8446     1.60016E-02
         TOTAL TIME 5.76097E+06  96016.      1600.3      66.678     0.18255    
1
 
 SOLVING FOR HEAD 
     9 ITERATIONS FOR TIME STEP   6 IN STRESS PERIOD    3

 MAXIMUM HEAD CHANGE FOR EACH ITERATION:

    HEAD CHANGE   HEAD CHANGE   HEAD CHANGE   HEAD CHANGE   HEAD CHANGE
  LAYER,ROW,COL LAYER,ROW,COL LAYER,ROW,COL LAYER,ROW,COL LAYER,ROW,COL
 ----------------------------------------------------------------------
     0.3336E-01    0.1702E-01    0.8729E-02    0.4487E-02    0.2228E-02
  (  1,  3,  6) (  1,  3,  6) (  1,  3,  6) (  1,  3,  6) (  1,  3,  6)
     0.1150E-02    0.6209E-03    0.2807E-03    0.1341E-03
  (  1,  3,  6) (  1,  3,  6) (  1,  3,  6) (  1,  3,  6)


 NO OUTPUT CONTROL FOR STRESS PERIOD    3   TIME STEP   6
 
 SOLVING FOR HEAD 
     9 ITERATIONS FOR TIME STEP   7 IN STRESS PERIOD    3

 MAXIMUM HEAD CHANGE FOR EACH ITERATION:

    HEAD CHANGE   HEAD CHANGE   HEAD CHANGE   HEAD CHANGE   HEAD CHANGE
  LAYER,ROW,COL LAYER,ROW,COL LAYER,ROW,COL LAYER,ROW,COL LAYER,ROW,COL
 ----------------------------------------------------------------------
     0.3319E-01    0.1692E-01    0.8696E-02    0.4394E-02    0.2249E-02
  (  1,  3,  6) (  1,  3,  6) (  1,  3,  6) (  1,  3,  6) (  1,  3,  6)
     0.1135E-02    0.5691E-03    0.2850E-03    0.1422E-03
  (  1,  3,  6) (  1,  3,  6) (  1,  3,  6) (  1,  3,  6)


 NO OUTPUT CONTROL FOR STRESS PERIOD    3   TIME STEP   7
 
 SOLVING FOR HEAD 
     9 ITERATIONS FOR TIME STEP   8 IN STRESS PERIOD    3

 MAXIMUM HEAD CHANGE FOR EACH ITERATION:

    HEAD CHANGE   HEAD CHANGE   HEAD CHANGE   HEAD CHANGE   HEAD CHANGE
  LAYER,ROW,COL LAYER,ROW,COL LAYER,ROW,COL LAYER,ROW,COL LAYER,ROW,COL
 ----------------------------------------------------------------------
     0.3289E-01    0.1682E-01    0.8527E-02    0.4334E-02    0.2274E-02
  (  1,  3,  6) (  1,  3,  6) (  1,  3,  6) (  1,  3,  6) (  1,  3,  6)
     0.1111E-02    0.5963E-03    0.3071E-03    0.1553E-03
  (  1,  3,  6) (  1,  3,  6) (  1,  3,  6) (  1,  3,  6)


 NO OUTPUT CONTROL FOR STRESS PERIOD    3   TIME STEP   8
 
 SOLVING FOR HEAD 
    10 ITERATIONS FOR TIME STEP   9 IN STRESS PERIOD    3

 MAXIMUM HEAD CHANGE FOR EACH ITERATION:

    HEAD CHANGE   HEAD CHANGE   HEAD CHANGE   HEAD CHANGE   HEAD CHANGE
  LAYER,ROW,COL LAYER,ROW,COL LAYER,ROW,COL LAYER,ROW,COL LAYER,ROW,COL
 ----------------------------------------------------------------------
     0.5684E-01    0.2871E-01    0.1455E-01    0.7422E-02    0.3765E-02
  (  1,  3,  5) (  1,  3,  5) (  1,  3,  5) (  1,  3,  5) (  1,  3,  5)
     0.1869E-02    0.9570E-03    0.5096E-03    0.2611E-03    0.1055E-03
  (  1,  3,  5) (  1,  3,  5) (  1,  3,  5) (  1,  3,  5) (  1,  3,  5)


 NO OUTPUT CONTROL FOR STRESS PERIOD    3   TIME STEP   9
 
 SOLVING FOR HEAD 
    10 ITERATIONS FOR TIME STEP  10 IN STRESS PERIOD    3

 MAXIMUM HEAD CHANGE FOR EACH ITERATION:

    HEAD CHANGE   HEAD CHANGE   HEAD CHANGE   HEAD CHANGE   HEAD CHANGE
  LAYER,ROW,COL LAYER,ROW,COL LAYER,ROW,COL LAYER,ROW,COL LAYER,ROW,COL
 ----------------------------------------------------------------------
     0.5851E-01    0.2972E-01    0.1509E-01    0.7633E-02    0.3871E-02
  (  1,  3,  5) (  1,  3,  5) (  1,  3,  5) (  1,  3,  5) (  1,  3,  6)
     0.2065E-02    0.1086E-02    0.6089E-03    0.2904E-03    0.1714E-03
  (  1,  3,  6) (  1,  3,  6) (  1,  3,  6) (  1,  3,  6) (  1,  3,  5)


 OUTPUT CONTROL FOR STRESS PERIOD    3   TIME STEP  10
    PRINT BUDGET
    SAVE BUDGET

            WELLS   PERIOD    3   STEP  10
 WELL      1   LAYER   1   ROW     6   COL     4   RATE    -1.00000    
 WELL      2   LAYER   1   ROW     6   COL     5   RATE    -1.00000    
 WELL      3   LAYER   1   ROW     7   COL     4   RATE    -1.00000    
 WELL      4   LAYER   1   ROW     7   COL     5   RATE    -1.00000    
 WELL      5   LAYER   1   ROW     8   COL     4   RATE    -1.00000    
 WELL      6   LAYER   1   ROW     8   COL     5   RATE    -1.00000    
 WELL      7   LAYER   1   ROW     9   COL     4   RATE    -1.00000    
 WELL      8   LAYER   1   ROW     9   COL     5   RATE    -1.00000    
 WELL      9   LAYER   1   ROW    10   COL     4   RATE    -1.00000    
 WELL     10   LAYER   1   ROW    10   COL     5   RATE    -1.00000    

  HEAD DEP BOUNDS   PERIOD    3   STEP  10
 BOUNDARY      1   LAYER   1   ROW    13   COL     1   RATE   -0.262840    
 BOUNDARY      2   LAYER   1   ROW    14   COL     9   RATE    0.208358    
 UBDSV3 SAVING "           GW ET" ON UNIT  61 AT TIME STEP 10, STRESS PERIOD   3
 UBDSV3 SAVING "    UZF INFILTR." ON UNIT  61 AT TIME STEP 10, STRESS PERIOD   3
 UBDSV3 SAVING "    UZF RECHARGE" ON UNIT  61 AT TIME STEP 10, STRESS PERIOD   3
 UBDSV3 SAVING " SURFACE LEAKAGE" ON UNIT  61 AT TIME STEP 10, STRESS PERIOD   3


UNSATURATED ZONE PACKAGE VOLUMETRIC BUDGET FOR  TIME STEP   10 STRESS PERIOD    3
  ------------------------------------------------------------------------------



     CUMULATIVE VOLUMES      L**3       RATES FOR THIS TIME STEP      L**3/T
     ------------------                 ------------------------

           IN:                                      IN:
           ---                                      ---
        INFILTRATION =   312170963.6600          INFILTRATION =          84.7500

          OUT:                                     OUT:
          ----                                     ----
              UZF ET =   490703584.1323                UZF ET =         124.1310
        UZF RECHARGE =    64356336.1145          UZF RECHARGE =          15.4853

            IN - OUT =  -242888956.5868              IN - OUT =         -54.8663

          STORAGE:                                 STORAGE:
          --------                                 --------
      STORAGE CHANGE =  -242823408.2345        STORAGE CHANGE =         -54.8632

 PERCENT DISCREPANCY IS DIFFERENCE BETWEEN IN-OUT MINUS CHANGE IN STORAGE
 DIVIDED BY THE AVERAGE OF IN AND OUT TIMES 100

 PERCENT DISCREPANCY =           0.00     PERCENT DISCREPANCY =           0.00









 STREAM LISTING     PERIOD      3   STEP       10

 LAYER ROW COL. STREAM  RCH.  FLOW INTO     FLOW TO   FLOW OUT OF   OVRLND.     DIRECT     STREAM       STREAM     STREAM     STREAM   STREAMBED  STREAMBED
                SEG.NO.  NO.  STRM. RCH.    AQUIFER    STRM. RCH.    RUNOFF     PRECIP       ET          HEAD       DEPTH      WIDTH   CONDCTNC.   GRADIENT

   1    1    1     1     1    2.5000E+01  1.0148E+00   2.3985E+01  0.000E+00  0.000E+00  0.000E+00  1.09422E+03  1.173E+00  1.296E+01  5.832E-01  5.800E-01
   1    2    2     1     2    2.3985E+01  3.0414E+00   2.0944E+01  0.000E+00  0.000E+00  0.000E+00  1.08920E+03  1.141E+00  1.254E+01  8.779E-01  1.155E+00
   1    3    3     1     3    2.0944E+01  2.9084E+00   1.8035E+01  0.000E+00  0.000E+00  0.000E+00  1.08351E+03  1.092E+00  1.185E+01  7.108E-01  1.364E+00
   1    3    4     1     4    1.8035E+01  2.4707E+00   1.5565E+01  0.000E+00  0.000E+00  0.000E+00  1.07845E+03  1.046E+00  1.100E+01  6.107E-01  1.349E+00
   1    4    5     2     1    5.5647E+00  2.6645E+00   2.9002E+00  0.000E+00  0.000E+00  0.000E+00  1.07235E+03  4.160E-01  1.200E+01  7.800E-01  1.139E+00
   1    5    6     2     2    2.9002E+00  1.9555E+00   9.4472E-01  0.000E+00  0.000E+00  0.000E+00  1.06677E+03  2.591E-01  1.200E+01  6.000E-01  1.086E+00
   1    6    6     2     3    9.4472E-01  9.4472E-01   0.0000E+00  0.000E+00  0.000E+00  0.000E+00  1.06181E+03  1.903E-02  1.200E+01  6.000E-01  1.006E+00
   1    7    6     2     4    0.0000E+00  0.0000E+00   0.0000E+00  0.000E+00  0.000E+00  0.000E+00  1.05708E+03  0.000E+00  1.200E+01  6.000E-01  1.000E+00
   1    8    6     2     5    0.0000E+00  0.0000E+00   0.0000E+00  0.000E+00  0.000E+00  0.000E+00  1.05236E+03  0.000E+00  1.200E+01  6.000E-01  1.000E+00
   1    3    5     3     1    1.0000E+01  2.8252E+00   7.1748E+00  0.000E+00  0.000E+00  0.000E+00  1.07555E+03  1.909E+00  9.636E+00  7.227E-01  1.955E+00
   1    3    6     3     2    7.1748E+00  1.8074E+00   5.3674E+00  0.000E+00  0.000E+00  0.000E+00  1.07264E+03  1.727E+00  8.909E+00  6.682E-01  1.352E+00
   1    3    7     3     3    5.3674E+00  9.3002E-01   4.4374E+00  0.000E+00  0.000E+00  0.000E+00  1.06987E+03  1.555E+00  8.218E+00  5.547E-01  8.383E-01
   1    4    8     3     4    4.4374E+00  1.5471E+00   2.8903E+00  0.000E+00  0.000E+00  0.000E+00  1.06682E+03  1.364E+00  7.455E+00  6.709E-01  1.153E+00
   1    5    8     3     5    2.8903E+00  1.5790E+00   1.3113E+00  0.000E+00  0.000E+00  0.000E+00  1.06362E+03  1.164E+00  6.655E+00  4.991E-01  1.582E+00
   1    6    8     3     6    1.3113E+00  5.5980E-01   7.5152E-01  0.000E+00  0.000E+00  0.000E+00  1.06158E+03  1.036E+00  6.145E+00  1.844E-01  1.518E+00
   1    5   10     4     1    1.0000E+01  9.0525E-01   9.0947E+00  0.000E+00  0.000E+00  0.000E+00  1.07835E+03  6.210E-01  1.000E+01  2.500E-01  1.207E+00
   1    5    9     4     2    9.0947E+00  1.7835E+00   7.3113E+00  0.000E+00  0.000E+00  0.000E+00  1.07148E+03  5.670E-01  1.000E+01  5.000E-01  1.189E+00
   1    6    8     4     3    7.3113E+00  1.2257E+00   6.0855E+00  0.000E+00  0.000E+00  0.000E+00  1.06368E+03  5.021E-01  1.000E+01  3.500E-01  1.167E+00
   1    6    8     5     1    6.8371E+00  1.0398E+00   5.7972E+00  0.000E+00  0.000E+00  0.000E+00  1.05857E+03  5.719E-01  1.148E+01  4.594E-01  7.545E-01
   1    7    7     5     2    5.7972E+00  1.7430E+00   4.0543E+00  0.000E+00  0.000E+00  0.000E+00  1.05402E+03  5.242E-01  9.892E+00  4.946E-01  1.175E+00
   1    8    7     5     3    4.0543E+00  9.8809E-01   3.0662E+00  0.000E+00  0.000E+00  0.000E+00  1.04972E+03  4.679E-01  8.141E+00  2.849E-01  1.156E+00
   1    8    6     5     4    3.0662E+00  5.9971E-01   2.4665E+00  0.000E+00  0.000E+00  0.000E+00  1.04668E+03  4.283E-01  6.997E+00  1.749E-01  1.143E+00
   1    9    6     6     1    2.4665E+00  1.9354E+00   5.3109E-01  0.000E+00  0.000E+00  0.000E+00  1.04295E+03  2.256E-01  1.200E+01  6.000E-01  1.075E+00
   1   10    7     6     2    5.3109E-01  5.3109E-01   0.0000E+00  0.000E+00  0.000E+00  0.000E+00  1.03821E+03  2.724E-02  1.200E+01  6.000E-01  1.009E+00
   1   11    7     6     3    0.0000E+00  0.0000E+00   0.0000E+00  0.000E+00  0.000E+00  0.000E+00  1.03364E+03  0.000E+00  1.200E+01  6.000E-01  1.000E+00
   1   12    7     6     4    0.0000E+00  0.0000E+00   0.0000E+00  0.000E+00  0.000E+00  0.000E+00  1.02909E+03  0.000E+00  1.200E+01  6.000E-01  3.590E-01
   1   13    7     6     5    0.0000E+00 -7.9456E-01   7.9456E-01  0.000E+00  0.000E+00  0.000E+00  1.02591E+03  0.000E+00  1.200E+01  2.400E-01 -1.104E+00
   1   14    9     7     1    1.5000E+02  1.9565E+00   1.4804E+02  0.000E+00  0.000E+00  0.000E+00  1.03987E+03  2.286E+00  5.529E+01  5.592E+00  1.166E-01
   1   13    8     7     2    1.4804E+02  2.9717E+00   1.4507E+02  0.000E+00  0.000E+00  0.000E+00  1.03477E+03  2.273E+00  5.523E+01  6.144E+00  1.612E-01
   1   13    7     7     3    1.4507E+02  2.5532E+00   1.4252E+02  0.000E+00  0.000E+00  0.000E+00  1.02968E+03  2.258E+00  5.516E+01  5.578E+00  1.526E-01
   1   13    6     8     1    1.4331E+02  8.6261E-01   1.4245E+02  0.000E+00  0.000E+00  0.000E+00  1.02464E+03  2.766E+00  4.011E+01  4.087E+00  7.035E-02
   1   13    5     8     2    1.4245E+02 -2.0993E+00   1.4455E+02  0.000E+00  0.000E+00  0.000E+00  1.01840E+03  2.770E+00  4.017E+01  4.094E+00 -1.709E-01
   1   13    4     8     3    1.4455E+02 -3.8722E+00   1.4842E+02  0.000E+00  0.000E+00  0.000E+00  1.01217E+03  2.792E+00  4.048E+01  4.125E+00 -3.129E-01
   1   13    3     8     4    1.4842E+02 -4.1898E+00   1.5261E+02  0.000E+00  0.000E+00  0.000E+00  1.00595E+03  2.820E+00  4.090E+01  4.168E+00 -3.351E-01
   1   13    2     8     5    1.5261E+02 -2.0913E+00   1.5470E+02  0.000E+00  0.000E+00  0.000E+00  9.99717E+02  2.842E+00  4.121E+01  4.200E+00 -1.660E-01
   1   13    1     8     6    1.5470E+02 -4.8165E-01   1.5518E+02  0.000E+00  0.000E+00  0.000E+00  9.94726E+02  2.851E+00  4.134E+01  2.528E+00 -6.351E-02



1
  VOLUMETRIC BUDGET FOR ENTIRE MODEL AT END OF TIME STEP 10 IN STRESS PERIOD   3
  ------------------------------------------------------------------------------

     CUMULATIVE VOLUMES      L**3       RATES FOR THIS TIME STEP      L**3/T
     ------------------                 ------------------------

           IN:                                      IN:
           ---                                      ---
             STORAGE =       84578.8984               STORAGE =       2.4502E-02
       CONSTANT HEAD =           0.0000         CONSTANT HEAD =           0.0000
               WELLS =           0.0000                 WELLS =           0.0000
     HEAD DEP BOUNDS =     1375133.7500       HEAD DEP BOUNDS =           0.2084
        UZF RECHARGE =    64356332.0000          UZF RECHARGE =          15.4853
               GW ET =           0.0000                 GW ET =           0.0000
     SURFACE LEAKAGE =           0.0000       SURFACE LEAKAGE =           0.0000
      STREAM LEAKAGE =   287975872.0000        STREAM LEAKAGE =          43.3441

            TOTAL IN =   353791904.0000              TOTAL IN =          59.0622

          OUT:                                     OUT:
          ----                                     ----
             STORAGE =    42753412.0000               STORAGE =          21.2816
       CONSTANT HEAD =           0.0000         CONSTANT HEAD =           0.0000
               WELLS =   118302328.0000                 WELLS =          10.0000
     HEAD DEP BOUNDS =     1721587.5000       HEAD DEP BOUNDS =           0.2628
        UZF RECHARGE =           0.0000          UZF RECHARGE =           0.0000
               GW ET =   107960744.0000                 GW ET =          13.9658
     SURFACE LEAKAGE =           0.0000       SURFACE LEAKAGE =           0.0000
      STREAM LEAKAGE =    82878128.0000        STREAM LEAKAGE =          13.5288

           TOTAL OUT =   353616192.0000             TOTAL OUT =          59.0390

            IN - OUT =      175712.0000              IN - OUT =       2.3197E-02

 PERCENT DISCREPANCY =           0.05     PERCENT DISCREPANCY =           0.04






          TIME SUMMARY AT END OF TIME STEP  10 IN STRESS PERIOD    3
                    SECONDS     MINUTES      HOURS       DAYS        YEARS
                    -----------------------------------------------------------
   TIME STEP LENGTH 1.95033E+05  3250.6      54.176      2.2573     6.18023E-03
 STRESS PERIOD TIME 1.31823E+06  21971.      366.18      15.257     4.17723E-02
         TOTAL TIME 6.57423E+06 1.09571E+05  1826.2      76.091     0.20832    
1
 
 SOLVING FOR HEAD 
    10 ITERATIONS FOR TIME STEP  11 IN STRESS PERIOD    3

 MAXIMUM HEAD CHANGE FOR EACH ITERATION:

    HEAD CHANGE   HEAD CHANGE   HEAD CHANGE   HEAD CHANGE   HEAD CHANGE
  LAYER,ROW,COL LAYER,ROW,COL LAYER,ROW,COL LAYER,ROW,COL LAYER,ROW,COL
 ----------------------------------------------------------------------
     0.6269E-01    0.3171E-01    0.1605E-01    0.8141E-02    0.4254E-02
  (  1,  3,  5) (  1,  3,  5) (  1,  3,  5) (  1,  3,  5) (  1,  3,  6)
     0.2262E-02    0.1249E-02    0.6177E-03    0.3681E-03    0.1958E-03
  (  1,  3,  6) (  1,  3,  6) (  1,  3,  6) (  1,  3,  6) (  1,  3,  6)


 NO OUTPUT CONTROL FOR STRESS PERIOD    3   TIME STEP  11
 
 SOLVING FOR HEAD 
    11 ITERATIONS FOR TIME STEP  12 IN STRESS PERIOD    3

 MAXIMUM HEAD CHANGE FOR EACH ITERATION:

    HEAD CHANGE   HEAD CHANGE   HEAD CHANGE   HEAD CHANGE   HEAD CHANGE
  LAYER,ROW,COL LAYER,ROW,COL LAYER,ROW,COL LAYER,ROW,COL LAYER,ROW,COL
 ----------------------------------------------------------------------
     0.8986E-01    0.4811E-01    0.2569E-01    0.1378E-01    0.7346E-02
  (  1,  3,  5) (  1,  3,  5) (  1,  3,  5) (  1,  3,  5) (  1,  3,  5)
     0.3979E-02    0.2117E-02    0.1122E-02    0.6412E-03    0.3367E-03
  (  1,  3,  5) (  1,  3,  5) (  1,  3,  5) (  1,  3,  5) (  1,  3,  5)
     0.1373E-03
  (  1,  3,  5)


 NO OUTPUT CONTROL FOR STRESS PERIOD    3   TIME STEP  12
 
 SOLVING FOR HEAD 
    11 ITERATIONS FOR TIME STEP  13 IN STRESS PERIOD    3

 MAXIMUM HEAD CHANGE FOR EACH ITERATION:

    HEAD CHANGE   HEAD CHANGE   HEAD CHANGE   HEAD CHANGE   HEAD CHANGE
  LAYER,ROW,COL LAYER,ROW,COL LAYER,ROW,COL LAYER,ROW,COL LAYER,ROW,COL
 ----------------------------------------------------------------------
     0.8886E-01    0.4738E-01    0.2530E-01    0.1344E-01    0.7177E-02
  (  1,  3,  5) (  1,  3,  5) (  1,  3,  5) (  1,  3,  5) (  1,  3,  5)
     0.3876E-02    0.2066E-02    0.1098E-02    0.5244E-03    0.3329E-03
  (  1,  3,  5) (  1,  3,  5) (  1,  3,  5) (  1,  3,  5) (  1,  3,  5)
     0.1432E-03
  (  1,  3,  5)


 NO OUTPUT CONTROL FOR STRESS PERIOD    3   TIME STEP  13
 
 SOLVING FOR HEAD 
    11 ITERATIONS FOR TIME STEP  14 IN STRESS PERIOD    3

 MAXIMUM HEAD CHANGE FOR EACH ITERATION:

    HEAD CHANGE   HEAD CHANGE   HEAD CHANGE   HEAD CHANGE   HEAD CHANGE
  LAYER,ROW,COL LAYER,ROW,COL LAYER,ROW,COL LAYER,ROW,COL LAYER,ROW,COL
 ----------------------------------------------------------------------
     0.8802E-01    0.4673E-01    0.2489E-01    0.1323E-01    0.7051E-02
  (  1,  3,  5) (  1,  3,  5) (  1,  3,  5) (  1,  3,  5) (  1,  3,  5)
     0.3745E-02    0.1994E-02    0.1065E-02    0.5452E-03    0.2778E-03
  (  1,  3,  5) (  1,  3,  5) (  1,  3,  5) (  1,  3,  5) (  1,  3,  5)
     0.1393E-03
  (  1,  3,  5)


 NO OUTPUT CONTROL FOR STRESS PERIOD    3   TIME STEP  14
 
 SOLVING FOR HEAD 
    11 ITERATIONS FOR TIME STEP  15 IN STRESS PERIOD    3

 MAXIMUM HEAD CHANGE FOR EACH ITERATION:

    HEAD CHANGE   HEAD CHANGE   HEAD CHANGE   HEAD CHANGE   HEAD CHANGE
  LAYER,ROW,COL LAYER,ROW,COL LAYER,ROW,COL LAYER,ROW,COL LAYER,ROW,COL
 ----------------------------------------------------------------------
     0.8770E-01    0.4653E-01    0.2465E-01    0.1312E-01    0.6978E-02
  (  1,  3,  5) (  1,  3,  5) (  1,  3,  5) (  1,  3,  5) (  1,  3,  5)
     0.3763E-02    0.2022E-02    0.1040E-02    0.5710E-03    0.2962E-03
  (  1,  3,  5) (  1,  3,  5) (  1,  3,  5) (  1,  3,  5) (  1,  3,  5)
     0.1509E-03
  (  1,  3,  5)


 OUTPUT CONTROL FOR STRESS PERIOD    3   TIME STEP  15
    PRINT BUDGET
    PRINT HEAD FOR ALL LAYERS
    SAVE HEAD FOR ALL LAYERS
    SAVE BUDGET

            WELLS   PERIOD    3   STEP  15
 WELL      1   LAYER   1   ROW     6   COL     4   RATE    -1.00000    
 WELL      2   LAYER   1   ROW     6   COL     5   RATE    -1.00000    
 WELL      3   LAYER   1   ROW     7   COL     4   RATE    -1.00000    
 WELL      4   LAYER   1   ROW     7   COL     5   RATE    -1.00000    
 WELL      5   LAYER   1   ROW     8   COL     4   RATE    -1.00000    
 WELL      6   LAYER   1   ROW     8   COL     5   RATE    -1.00000    
 WELL      7   LAYER   1   ROW     9   COL     4   RATE    -1.00000    
 WELL      8   LAYER   1   ROW     9   COL     5   RATE    -1.00000    
 WELL      9   LAYER   1   ROW    10   COL     4   RATE    -1.00000    
 WELL     10   LAYER   1   ROW    10   COL     5   RATE    -1.00000    

  HEAD DEP BOUNDS   PERIOD    3   STEP  15
 BOUNDARY      1   LAYER   1   ROW    13   COL     1   RATE   -0.262966    
 BOUNDARY      2   LAYER   1   ROW    14   COL     9   RATE    0.208326    
 UBDSV3 SAVING "           GW ET" ON UNIT  61 AT TIME STEP 15, STRESS PERIOD   3
 UBDSV3 SAVING "    UZF INFILTR." ON UNIT  61 AT TIME STEP 15, STRESS PERIOD   3
 UBDSV3 SAVING "    UZF RECHARGE" ON UNIT  61 AT TIME STEP 15, STRESS PERIOD   3
 UBDSV3 SAVING " SURFACE LEAKAGE" ON UNIT  61 AT TIME STEP 15, STRESS PERIOD   3


UNSATURATED ZONE PACKAGE VOLUMETRIC BUDGET FOR  TIME STEP   15 STRESS PERIOD    3
  ------------------------------------------------------------------------------



     CUMULATIVE VOLUMES      L**3       RATES FOR THIS TIME STEP      L**3/T
     ------------------                 ------------------------

           IN:                                      IN:
           ---                                      ---
        INFILTRATION =   423173664.0228          INFILTRATION =          84.7500

          OUT:                                     OUT:
          ----                                     ----
              UZF ET =   640655617.3185                UZF ET =         108.5683
        UZF RECHARGE =    85556269.5514          UZF RECHARGE =          15.9790

            IN - OUT =  -303038222.8471              IN - OUT =         -39.7973

          STORAGE:                                 STORAGE:
          --------                                 --------
      STORAGE CHANGE =  -302941927.7586        STORAGE CHANGE =         -39.7626

 PERCENT DISCREPANCY IS DIFFERENCE BETWEEN IN-OUT MINUS CHANGE IN STORAGE
 DIVIDED BY THE AVERAGE OF IN AND OUT TIMES 100

 PERCENT DISCREPANCY =           0.00     PERCENT DISCREPANCY =          -0.03









 STREAM LISTING     PERIOD      3   STEP       15

 LAYER ROW COL. STREAM  RCH.  FLOW INTO     FLOW TO   FLOW OUT OF   OVRLND.     DIRECT     STREAM       STREAM     STREAM     STREAM   STREAMBED  STREAMBED
                SEG.NO.  NO.  STRM. RCH.    AQUIFER    STRM. RCH.    RUNOFF     PRECIP       ET          HEAD       DEPTH      WIDTH   CONDCTNC.   GRADIENT

   1    1    1     1     1    2.5000E+01  1.0034E+00   2.3997E+01  0.000E+00  0.000E+00  0.000E+00  1.09422E+03  1.173E+00  1.296E+01  5.833E-01  5.734E-01
   1    2    2     1     2    2.3997E+01  3.0264E+00   2.0970E+01  0.000E+00  0.000E+00  0.000E+00  1.08920E+03  1.141E+00  1.255E+01  8.782E-01  1.149E+00
   1    3    3     1     3    2.0970E+01  2.9106E+00   1.8060E+01  0.000E+00  0.000E+00  0.000E+00  1.08351E+03  1.092E+00  1.185E+01  7.113E-01  1.364E+00
   1    3    4     1     4    1.8060E+01  2.4726E+00   1.5587E+01  0.000E+00  0.000E+00  0.000E+00  1.07845E+03  1.046E+00  1.101E+01  6.111E-01  1.349E+00
   1    4    5     2     1    5.5870E+00  2.6655E+00   2.9215E+00  0.000E+00  0.000E+00  0.000E+00  1.07235E+03  4.173E-01  1.200E+01  7.800E-01  1.139E+00
   1    5    6     2     2    2.9215E+00  1.9565E+00   9.6501E-01  0.000E+00  0.000E+00  0.000E+00  1.06677E+03  2.608E-01  1.200E+01  6.000E-01  1.087E+00
   1    6    6     2     3    9.6501E-01  9.6501E-01   0.0000E+00  0.000E+00  0.000E+00  0.000E+00  1.06181E+03  1.928E-02  1.200E+01  6.000E-01  1.006E+00
   1    7    6     2     4    0.0000E+00  0.0000E+00   0.0000E+00  0.000E+00  0.000E+00  0.000E+00  1.05708E+03  0.000E+00  1.200E+01  6.000E-01  1.000E+00
   1    8    6     2     5    0.0000E+00  0.0000E+00   0.0000E+00  0.000E+00  0.000E+00  0.000E+00  1.05236E+03  0.000E+00  1.200E+01  6.000E-01  1.000E+00
   1    3    5     3     1    1.0000E+01  2.8252E+00   7.1748E+00  0.000E+00  0.000E+00  0.000E+00  1.07555E+03  1.909E+00  9.636E+00  7.227E-01  1.955E+00
   1    3    6     3     2    7.1748E+00  1.4657E+00   5.7092E+00  0.000E+00  0.000E+00  0.000E+00  1.07264E+03  1.727E+00  8.909E+00  6.682E-01  1.097E+00
   1    3    7     3     3    5.7092E+00  7.0846E-01   5.0007E+00  0.000E+00  0.000E+00  0.000E+00  1.06987E+03  1.555E+00  8.218E+00  5.547E-01  6.386E-01
   1    4    8     3     4    5.0007E+00  1.5732E+00   3.4275E+00  0.000E+00  0.000E+00  0.000E+00  1.06682E+03  1.364E+00  7.455E+00  6.709E-01  1.172E+00
   1    5    8     3     5    3.4275E+00  1.5790E+00   1.8485E+00  0.000E+00  0.000E+00  0.000E+00  1.06362E+03  1.164E+00  6.655E+00  4.991E-01  1.582E+00
   1    6    8     3     6    1.8485E+00  5.5980E-01   1.2887E+00  0.000E+00  0.000E+00  0.000E+00  1.06158E+03  1.036E+00  6.145E+00  1.844E-01  1.518E+00
   1    5   10     4     1    1.0000E+01  9.0525E-01   9.0947E+00  0.000E+00  0.000E+00  0.000E+00  1.07835E+03  6.210E-01  1.000E+01  2.500E-01  1.207E+00
   1    5    9     4     2    9.0947E+00  1.7835E+00   7.3113E+00  0.000E+00  0.000E+00  0.000E+00  1.07148E+03  5.670E-01  1.000E+01  5.000E-01  1.189E+00
   1    6    8     4     3    7.3113E+00  1.2257E+00   6.0855E+00  0.000E+00  0.000E+00  0.000E+00  1.06368E+03  5.021E-01  1.000E+01  3.500E-01  1.167E+00
   1    6    8     5     1    7.3743E+00  1.0757E+00   6.2986E+00  0.000E+00  0.000E+00  0.000E+00  1.05859E+03  5.879E-01  1.204E+01  4.817E-01  7.444E-01
   1    7    7     5     2    6.2986E+00  1.8454E+00   4.4532E+00  0.000E+00  0.000E+00  0.000E+00  1.05404E+03  5.405E-01  1.042E+01  5.212E-01  1.180E+00
   1    8    7     5     3    4.4532E+00  1.0529E+00   3.4003E+00  0.000E+00  0.000E+00  0.000E+00  1.04973E+03  4.842E-01  8.634E+00  3.022E-01  1.161E+00
   1    8    6     5     4    3.4003E+00  6.4257E-01   2.7578E+00  0.000E+00  0.000E+00  0.000E+00  1.04669E+03  4.447E-01  7.462E+00  1.865E-01  1.148E+00
   1    9    6     6     1    2.7578E+00  1.9502E+00   8.0753E-01  0.000E+00  0.000E+00  0.000E+00  1.04298E+03  2.504E-01  1.200E+01  6.000E-01  1.083E+00
   1   10    7     6     2    8.0753E-01  8.0753E-01   0.0000E+00  0.000E+00  0.000E+00  0.000E+00  1.03822E+03  3.503E-02  1.200E+01  6.000E-01  1.012E+00
   1   11    7     6     3    0.0000E+00  0.0000E+00   0.0000E+00  0.000E+00  0.000E+00  0.000E+00  1.03364E+03  0.000E+00  1.200E+01  6.000E-01  1.000E+00
   1   12    7     6     4    0.0000E+00  0.0000E+00   0.0000E+00  0.000E+00  0.000E+00  0.000E+00  1.02909E+03  0.000E+00  1.200E+01  6.000E-01  3.466E-01
   1   13    7     6     5    0.0000E+00 -7.9532E-01   7.9532E-01  0.000E+00  0.000E+00  0.000E+00  1.02591E+03  0.000E+00  1.200E+01  2.400E-01 -1.105E+00
   1   14    9     7     1    1.5000E+02  1.9519E+00   1.4805E+02  0.000E+00  0.000E+00  0.000E+00  1.03987E+03  2.286E+00  5.529E+01  5.592E+00  1.163E-01
   1   13    8     7     2    1.4805E+02  2.9650E+00   1.4508E+02  0.000E+00  0.000E+00  0.000E+00  1.03477E+03  2.273E+00  5.523E+01  6.144E+00  1.609E-01
   1   13    7     7     3    1.4508E+02  2.5363E+00   1.4255E+02  0.000E+00  0.000E+00  0.000E+00  1.02968E+03  2.258E+00  5.516E+01  5.578E+00  1.516E-01
   1   13    6     8     1    1.4334E+02  8.3738E-01   1.4250E+02  0.000E+00  0.000E+00  0.000E+00  1.02464E+03  2.766E+00  4.011E+01  4.087E+00  6.829E-02
   1   13    5     8     2    1.4250E+02 -2.1531E+00   1.4466E+02  0.000E+00  0.000E+00  0.000E+00  1.01840E+03  2.771E+00  4.018E+01  4.094E+00 -1.753E-01
   1   13    4     8     3    1.4466E+02 -3.9207E+00   1.4858E+02  0.000E+00  0.000E+00  0.000E+00  1.01217E+03  2.793E+00  4.050E+01  4.127E+00 -3.167E-01
   1   13    3     8     4    1.4858E+02 -4.2340E+00   1.5281E+02  0.000E+00  0.000E+00  0.000E+00  1.00595E+03  2.822E+00  4.092E+01  4.169E+00 -3.385E-01
   1   13    2     8     5    1.5281E+02 -2.1025E+00   1.5492E+02  0.000E+00  0.000E+00  0.000E+00  9.99719E+02  2.844E+00  4.124E+01  4.202E+00 -1.668E-01
   1   13    1     8     6    1.5492E+02 -4.8654E-01   1.5540E+02  0.000E+00  0.000E+00  0.000E+00  9.94728E+02  2.853E+00  4.137E+01  2.529E+00 -6.412E-02



1
              HEAD IN LAYER   1 AT END OF TIME STEP  15 IN STRESS PERIOD    3
  ---------------------------------------------------------------------------

           1       2       3       4       5       6       7       8       9      10
 ...................................................................................
   1  1092.50 1088.67 6999.00 6999.00 6999.00 6999.00 6999.00 6999.00 6999.00 6999.00
   2  1089.21 1085.75 1079.05 6999.00 6999.00 1071.67 1070.91 1070.38 6999.00 6999.00
   3  6999.00 1077.35 1074.20 1069.91 1071.34 1070.44 1068.60 1067.88 6999.00 6999.00
   4  1067.82 1068.31 1066.44 1062.76 1061.62 1060.40 1061.26 1064.47 1063.74 6999.00
   5  1063.67 1061.23 1058.43 1056.24 1056.00 1056.74 1056.83 1059.23 1062.85 1065.29
   6  1058.99 1055.27 1051.90 1049.84 1050.22 1052.05 1053.63 1056.35 1059.24 1063.62
   7  1055.33 1049.59 1045.97 1044.05 1044.79 1046.97 1049.75 1052.41 1054.06 6999.00
   8  6999.00 1042.24 1039.89 1038.43 1039.45 1041.83 1043.93 1046.91 1049.11 6999.00
   9  6999.00 1035.31 1033.92 1033.13 1034.47 1037.00 1038.14 1040.44 1043.70 6999.00
  10  6999.00 1028.30 1028.06 1028.42 1030.01 1032.19 1033.67 1035.88 1039.94 1044.37
  11  6999.00 1019.58 1020.98 1024.15 1026.25 1028.49 1030.11 1032.65 1036.23 6999.00
  12  1001.16 1008.80 1013.99 1018.71 1022.37 1025.64 1028.05 1031.08 1034.81 6999.00
  13   994.92 1000.22 1006.96 1013.12 1018.92 1024.44 1029.22 1034.29 1036.45 6999.00
  14  6999.00 1005.81 1011.49 1016.20 1021.24 1026.07 1030.49 1035.38 1039.52 6999.00
  15  6999.00 6999.00 1018.83 1021.82 1025.56 1028.54 6999.00 6999.00 6999.00 6999.00

 HEAD WILL BE SAVED ON UNIT   58 AT END OF TIME STEP  15, STRESS PERIOD    3
1
  VOLUMETRIC BUDGET FOR ENTIRE MODEL AT END OF TIME STEP 15 IN STRESS PERIOD   3
  ------------------------------------------------------------------------------

     CUMULATIVE VOLUMES      L**3       RATES FOR THIS TIME STEP      L**3/T
     ------------------                 ------------------------

           IN:                                      IN:
           ---                                      ---
             STORAGE =      338795.6250               STORAGE =           0.2043
       CONSTANT HEAD =           0.0000         CONSTANT HEAD =           0.0000
               WELLS =           0.0000                 WELLS =           0.0000
     HEAD DEP BOUNDS =     1648010.0000       HEAD DEP BOUNDS =           0.2083
        UZF RECHARGE =    85556264.0000          UZF RECHARGE =          15.9790
               GW ET =           0.0000                 GW ET =           0.0000
     SURFACE LEAKAGE =           0.0000       SURFACE LEAKAGE =           0.0000
      STREAM LEAKAGE =   344700928.0000        STREAM LEAKAGE =          43.2905

            TOTAL IN =   432244000.0000              TOTAL IN =          59.6821

          OUT:                                     OUT:
          ----                                     ----
             STORAGE =    70906640.0000               STORAGE =          21.0433
       CONSTANT HEAD =           0.0000         CONSTANT HEAD =           0.0000
               WELLS =   131400000.0000                 WELLS =          10.0000
     HEAD DEP BOUNDS =     2065954.2500       HEAD DEP BOUNDS =           0.2630
        UZF RECHARGE =           0.0000          UZF RECHARGE =           0.0000
               GW ET =   126929680.0000                 GW ET =          14.6587
     SURFACE LEAKAGE =           0.0000       SURFACE LEAKAGE =           0.0000
      STREAM LEAKAGE =   100742016.0000        STREAM LEAKAGE =          13.6922

           TOTAL OUT =   432044288.0000             TOTAL OUT =          59.6572

            IN - OUT =      199712.0000              IN - OUT =       2.4822E-02

 PERCENT DISCREPANCY =           0.05     PERCENT DISCREPANCY =           0.04






          TIME SUMMARY AT END OF TIME STEP  15 IN STRESS PERIOD    3
                    SECONDS     MINUTES      HOURS       DAYS        YEARS
                    -----------------------------------------------------------
   TIME STEP LENGTH 3.14103E+05  5235.0      87.251      3.6354     9.95332E-03
 STRESS PERIOD TIME 2.62800E+06  43800.      730.00      30.417     8.32763E-02
         TOTAL TIME 7.88400E+06 1.31400E+05  2190.0      91.250     0.24983    
1
1
                            STRESS PERIOD NO.    4, LENGTH =   2628000.    
                            -----------------------------------------------

                              NUMBER OF TIME STEPS =    15

                               MULTIPLIER FOR DELT =     1.100

                            INITIAL TIME STEP SIZE =   82713.07    

 WELL NO.  LAYER   ROW   COL   STRESS RATE         
 --------------------------------------------------
      1      1      6      4      -1.000    
      2      1      6      5      -1.000    
      3      1      7      4      -1.000    
      4      1      7      5      -1.000    
      5      1      8      4      -1.000    
      6      1      8      5      -1.000    
      7      1      9      4      -1.000    
      8      1      9      5      -1.000    
      9      1     10      4      -1.000    
     10      1     10      5      -1.000    

     10 WELLS

 REUSING NON-PARAMETER GHB CELLS FROM LAST STRESS PERIOD

      2 GHB CELLS

 REUSING STREAM SEGMENT DATA FROM LAST STRESS PERIOD



            AREAL INFILTRATION RATE
 READING ON UNIT   19 WITH FORMAT: (10F4.0)            

            1           2           3           4           5           6           7           8           9          10
 ........................................................................................................................
   1   2.0000E-08  4.0000E-08   0.000       0.000       0.000       0.000       0.000       0.000       0.000       0.000    
   2   4.0000E-08  2.0000E-08  4.0000E-08   0.000       0.000      1.6000E-07  1.6000E-07  1.0000E-07   0.000       0.000    
   3    0.000      1.0000E-07  2.0000E-08  2.0000E-08  1.6000E-07  1.6000E-07  1.0000E-07  1.0000E-07   0.000       0.000    
   4   1.6000E-07  1.0000E-07  2.0000E-08  2.0000E-08  2.0000E-08  2.0000E-08  2.0000E-08  2.0000E-08  4.0000E-08   0.000    
   5   1.6000E-07  1.0000E-07  2.0000E-08  2.0000E-08  2.0000E-08  2.0000E-08  2.0000E-08  2.0000E-08  2.0000E-08  2.0000E-08
   6   1.6000E-07  1.0000E-07  1.0000E-07  4.0000E-08  4.0000E-08  2.0000E-08  2.0000E-08  2.0000E-08  2.0000E-08  1.0000E-07
   7   1.6000E-07  1.0000E-07  1.0000E-07  4.0000E-08  4.0000E-08  2.0000E-08  2.0000E-08  4.0000E-08  4.0000E-08   0.000    
   8    0.000      1.0000E-07  1.0000E-07  4.0000E-08  4.0000E-08  2.0000E-08  2.0000E-08  4.0000E-08  1.0000E-07   0.000    
   9    0.000      1.0000E-07  1.0000E-07  4.0000E-08  4.0000E-08  2.0000E-08  2.0000E-08  4.0000E-08  1.0000E-07   0.000    
  10    0.000      1.0000E-07  1.0000E-07  4.0000E-08  4.0000E-08  2.0000E-08  2.0000E-08  4.0000E-08  1.0000E-07  1.6000E-07
  11    0.000      2.0000E-08  2.0000E-08  2.0000E-08  2.0000E-08  2.0000E-08  2.0000E-08  4.0000E-08  1.0000E-07   0.000    
  12   2.0000E-08  2.0000E-08  2.0000E-08  2.0000E-08  2.0000E-08  2.0000E-08  2.0000E-08  2.0000E-08  4.0000E-08   0.000    
  13   2.0000E-08  2.0000E-08  4.0000E-08  4.0000E-08  4.0000E-08  4.0000E-08  4.0000E-08  2.0000E-08  2.0000E-08   0.000    
  14    0.000      4.0000E-08  1.0000E-07  1.0000E-07  1.0000E-07  1.0000E-07  1.0000E-07  4.0000E-08  2.0000E-08   0.000    
  15    0.000       0.000      1.6000E-07  1.6000E-07  1.6000E-07  1.6000E-07   0.000       0.000       0.000       0.000    

USING ET RATE FROM PREVIOUS STRESS PERIOD. CURRENT PERIOD IS:       4

 USING ET EXTINCTION DEPTH FROM PREVIOUS STRESS PERIOD. CURRENT PERIOD IS:       4

 USING EXTINCTION WATER CONTENT FROM PREVIOUS STRESS PERIOD. CURRENT PERIOD IS:       4
 
 SOLVING FOR HEAD 

     9 ITERATIONS FOR TIME STEP   1 IN STRESS PERIOD    4

 MAXIMUM HEAD CHANGE FOR EACH ITERATION:

    HEAD CHANGE   HEAD CHANGE   HEAD CHANGE   HEAD CHANGE   HEAD CHANGE
  LAYER,ROW,COL LAYER,ROW,COL LAYER,ROW,COL LAYER,ROW,COL LAYER,ROW,COL
 ----------------------------------------------------------------------
     0.2142E-01    0.1173E-01    0.6443E-02    0.3566E-02    0.1978E-02
  (  1,  3,  5) (  1,  3,  5) (  1,  3,  5) (  1,  3,  5) (  1,  3,  5)
     0.1054E-02    0.6155E-03    0.3255E-03    0.1661E-03
  (  1,  3,  5) (  1,  3,  5) (  1,  3,  5) (  1,  3,  5)


 NO OUTPUT CONTROL FOR STRESS PERIOD    4   TIME STEP   1
 
 SOLVING FOR HEAD 
     9 ITERATIONS FOR TIME STEP   2 IN STRESS PERIOD    4

 MAXIMUM HEAD CHANGE FOR EACH ITERATION:

    HEAD CHANGE   HEAD CHANGE   HEAD CHANGE   HEAD CHANGE   HEAD CHANGE
  LAYER,ROW,COL LAYER,ROW,COL LAYER,ROW,COL LAYER,ROW,COL LAYER,ROW,COL
 ----------------------------------------------------------------------
     0.2285E-01    0.1257E-01    0.6902E-02    0.3770E-02    0.2087E-02
  (  1,  3,  5) (  1,  3,  5) (  1,  3,  5) (  1,  3,  5) (  1,  3,  5)
     0.1140E-02    0.6168E-03    0.3456E-03    0.1802E-03
  (  1,  3,  5) (  1,  3,  5) (  1,  3,  5) (  1,  3,  5)


 NO OUTPUT CONTROL FOR STRESS PERIOD    4   TIME STEP   2
 
 SOLVING FOR HEAD 
     9 ITERATIONS FOR TIME STEP   3 IN STRESS PERIOD    4

 MAXIMUM HEAD CHANGE FOR EACH ITERATION:

    HEAD CHANGE   HEAD CHANGE   HEAD CHANGE   HEAD CHANGE   HEAD CHANGE
  LAYER,ROW,COL LAYER,ROW,COL LAYER,ROW,COL LAYER,ROW,COL LAYER,ROW,COL
 ----------------------------------------------------------------------
     0.2416E-01    0.1325E-01    0.7282E-02    0.4017E-02    0.2205E-02
  (  1,  3,  5) (  1,  3,  5) (  1,  3,  5) (  1,  3,  5) (  1,  3,  5)
     0.1234E-02    0.6735E-03    0.3786E-03    0.1976E-03
  (  1,  3,  5) (  1,  3,  5) (  1,  3,  5) (  1,  3,  5)


 NO OUTPUT CONTROL FOR STRESS PERIOD    4   TIME STEP   3
 
 SOLVING FOR HEAD 
    10 ITERATIONS FOR TIME STEP   4 IN STRESS PERIOD    4

 MAXIMUM HEAD CHANGE FOR EACH ITERATION:

    HEAD CHANGE   HEAD CHANGE   HEAD CHANGE   HEAD CHANGE   HEAD CHANGE
  LAYER,ROW,COL LAYER,ROW,COL LAYER,ROW,COL LAYER,ROW,COL LAYER,ROW,COL
 ----------------------------------------------------------------------
     0.2577E-01    0.1425E-01    0.7800E-02    0.4302E-02    0.2399E-02
  (  1,  3,  5) (  1,  3,  5) (  1,  3,  5) (  1,  3,  5) (  1,  3,  5)
     0.1283E-02    0.7244E-03    0.4125E-03    0.2162E-03    0.1099E-03
  (  1,  3,  5) (  1,  3,  5) (  1,  3,  5) (  1,  3,  5) (  1,  3,  5)


 NO OUTPUT CONTROL FOR STRESS PERIOD    4   TIME STEP   4
 
 SOLVING FOR HEAD 
    10 ITERATIONS FOR TIME STEP   5 IN STRESS PERIOD    4

 MAXIMUM HEAD CHANGE FOR EACH ITERATION:

    HEAD CHANGE   HEAD CHANGE   HEAD CHANGE   HEAD CHANGE   HEAD CHANGE
  LAYER,ROW,COL LAYER,ROW,COL LAYER,ROW,COL LAYER,ROW,COL LAYER,ROW,COL
 ----------------------------------------------------------------------
     0.2735E-01    0.1501E-01    0.8283E-02    0.4519E-02    0.2517E-02
  (  1,  3,  5) (  1,  3,  5) (  1,  3,  5) (  1,  3,  5) (  1,  3,  5)
     0.1384E-02    0.7168E-03    0.4369E-03    0.2341E-03    0.1200E-03
  (  1,  3,  5) (  1,  3,  5) (  1,  3,  5) (  1,  3,  5) (  1,  3,  5)


 OUTPUT CONTROL FOR STRESS PERIOD    4   TIME STEP   5
    PRINT BUDGET
    SAVE BUDGET

            WELLS   PERIOD    4   STEP   5
 WELL      1   LAYER   1   ROW     6   COL     4   RATE    -1.00000    
 WELL      2   LAYER   1   ROW     6   COL     5   RATE    -1.00000    
 WELL      3   LAYER   1   ROW     7   COL     4   RATE    -1.00000    
 WELL      4   LAYER   1   ROW     7   COL     5   RATE    -1.00000    
 WELL      5   LAYER   1   ROW     8   COL     4   RATE    -1.00000    
 WELL      6   LAYER   1   ROW     8   COL     5   RATE    -1.00000    
 WELL      7   LAYER   1   ROW     9   COL     4   RATE    -1.00000    
 WELL      8   LAYER   1   ROW     9   COL     5   RATE    -1.00000    
 WELL      9   LAYER   1   ROW    10   COL     4   RATE    -1.00000    
 WELL     10   LAYER   1   ROW    10   COL     5   RATE    -1.00000    

  HEAD DEP BOUNDS   PERIOD    4   STEP   5
 BOUNDARY      1   LAYER   1   ROW    13   COL     1   RATE   -0.262990    
 BOUNDARY      2   LAYER   1   ROW    14   COL     9   RATE    0.208324    
 UBDSV3 SAVING "           GW ET" ON UNIT  61 AT TIME STEP  5, STRESS PERIOD   4
 UBDSV3 SAVING "    UZF INFILTR." ON UNIT  61 AT TIME STEP  5, STRESS PERIOD   4
 UBDSV3 SAVING "    UZF RECHARGE" ON UNIT  61 AT TIME STEP  5, STRESS PERIOD   4
 UBDSV3 SAVING " SURFACE LEAKAGE" ON UNIT  61 AT TIME STEP  5, STRESS PERIOD   4


UNSATURATED ZONE PACKAGE VOLUMETRIC BUDGET FOR  TIME STEP    5 STRESS PERIOD    4
  ------------------------------------------------------------------------------



     CUMULATIVE VOLUMES      L**3       RATES FOR THIS TIME STEP      L**3/T
     ------------------                 ------------------------

           IN:                                      IN:
           ---                                      ---
        INFILTRATION =   508766347.9020          INFILTRATION =         169.5000

          OUT:                                     OUT:
          ----                                     ----
              UZF ET =   693348039.0765                UZF ET =         104.4099
        UZF RECHARGE =    93958462.2086          UZF RECHARGE =          18.1304

            IN - OUT =  -278540153.3831              IN - OUT =          46.9596

          STORAGE:                                 STORAGE:
          --------                                 --------
      STORAGE CHANGE =  -278434815.9218        STORAGE CHANGE =          46.9826

 PERCENT DISCREPANCY IS DIFFERENCE BETWEEN IN-OUT MINUS CHANGE IN STORAGE
 DIVIDED BY THE AVERAGE OF IN AND OUT TIMES 100

 PERCENT DISCREPANCY =           0.00     PERCENT DISCREPANCY =          -0.01









 STREAM LISTING     PERIOD      4   STEP        5

 LAYER ROW COL. STREAM  RCH.  FLOW INTO     FLOW TO   FLOW OUT OF   OVRLND.     DIRECT     STREAM       STREAM     STREAM     STREAM   STREAMBED  STREAMBED
                SEG.NO.  NO.  STRM. RCH.    AQUIFER    STRM. RCH.    RUNOFF     PRECIP       ET          HEAD       DEPTH      WIDTH   CONDCTNC.   GRADIENT

   1    1    1     1     1    2.5000E+01  9.9982E-01   2.4000E+01  0.000E+00  0.000E+00  0.000E+00  1.09422E+03  1.173E+00  1.296E+01  5.833E-01  5.713E-01
   1    2    2     1     2    2.4000E+01  3.0215E+00   2.0979E+01  0.000E+00  0.000E+00  0.000E+00  1.08920E+03  1.141E+00  1.255E+01  8.783E-01  1.147E+00
   1    3    3     1     3    2.0979E+01  2.9113E+00   1.8067E+01  0.000E+00  0.000E+00  0.000E+00  1.08351E+03  1.092E+00  1.186E+01  7.114E-01  1.364E+00
   1    3    4     1     4    1.8067E+01  2.4733E+00   1.5594E+01  0.000E+00  0.000E+00  0.000E+00  1.07845E+03  1.046E+00  1.101E+01  6.112E-01  1.349E+00
   1    4    5     2     1    5.5942E+00  2.6658E+00   2.9283E+00  0.000E+00  0.000E+00  0.000E+00  1.07235E+03  4.177E-01  1.200E+01  7.800E-01  1.139E+00
   1    5    6     2     2    2.9283E+00  1.9568E+00   9.7156E-01  0.000E+00  0.000E+00  0.000E+00  1.06677E+03  2.613E-01  1.200E+01  6.000E-01  1.087E+00
   1    6    6     2     3    9.7156E-01  9.7156E-01   0.0000E+00  0.000E+00  0.000E+00  0.000E+00  1.06181E+03  1.935E-02  1.200E+01  6.000E-01  1.006E+00
   1    7    6     2     4    0.0000E+00  0.0000E+00   0.0000E+00  0.000E+00  0.000E+00  0.000E+00  1.05708E+03  0.000E+00  1.200E+01  6.000E-01  1.000E+00
   1    8    6     2     5    0.0000E+00  0.0000E+00   0.0000E+00  0.000E+00  0.000E+00  0.000E+00  1.05236E+03  0.000E+00  1.200E+01  6.000E-01  1.000E+00
   1    3    5     3     1    1.0000E+01  2.8252E+00   7.1748E+00  0.000E+00  0.000E+00  0.000E+00  1.07555E+03  1.909E+00  9.636E+00  7.227E-01  1.955E+00
   1    3    6     3     2    7.1748E+00  1.3829E+00   5.7920E+00  0.000E+00  0.000E+00  0.000E+00  1.07264E+03  1.727E+00  8.909E+00  6.682E-01  1.035E+00
   1    3    7     3     3    5.7920E+00  6.5198E-01   5.1400E+00  0.000E+00  0.000E+00  0.000E+00  1.06987E+03  1.555E+00  8.218E+00  5.547E-01  5.877E-01
   1    4    8     3     4    5.1400E+00  1.5812E+00   3.5588E+00  0.000E+00  0.000E+00  0.000E+00  1.06682E+03  1.364E+00  7.455E+00  6.709E-01  1.178E+00
   1    5    8     3     5    3.5588E+00  1.5790E+00   1.9798E+00  0.000E+00  0.000E+00  0.000E+00  1.06362E+03  1.164E+00  6.655E+00  4.991E-01  1.582E+00
   1    6    8     3     6    1.9798E+00  5.5980E-01   1.4200E+00  0.000E+00  0.000E+00  0.000E+00  1.06158E+03  1.036E+00  6.145E+00  1.844E-01  1.518E+00
   1    5   10     4     1    1.0000E+01  9.0525E-01   9.0947E+00  0.000E+00  0.000E+00  0.000E+00  1.07835E+03  6.210E-01  1.000E+01  2.500E-01  1.207E+00
   1    5    9     4     2    9.0947E+00  1.7835E+00   7.3113E+00  0.000E+00  0.000E+00  0.000E+00  1.07148E+03  5.670E-01  1.000E+01  5.000E-01  1.189E+00
   1    6    8     4     3    7.3113E+00  1.2257E+00   6.0855E+00  0.000E+00  0.000E+00  0.000E+00  1.06368E+03  5.021E-01  1.000E+01  3.500E-01  1.167E+00
   1    6    8     5     1    7.5056E+00  1.0813E+00   6.4243E+00  0.000E+00  0.000E+00  0.000E+00  1.05859E+03  5.918E-01  1.218E+01  4.871E-01  7.400E-01
   1    7    7     5     2    6.4243E+00  1.8707E+00   4.5536E+00  0.000E+00  0.000E+00  0.000E+00  1.05404E+03  5.444E-01  1.056E+01  5.278E-01  1.181E+00
   1    8    7     5     3    4.5536E+00  1.0689E+00   3.4847E+00  0.000E+00  0.000E+00  0.000E+00  1.04974E+03  4.882E-01  8.755E+00  3.064E-01  1.163E+00
   1    8    6     5     4    3.4847E+00  6.5319E-01   2.8315E+00  0.000E+00  0.000E+00  0.000E+00  1.04670E+03  4.487E-01  7.576E+00  1.894E-01  1.150E+00
   1    9    6     6     1    2.8315E+00  1.9538E+00   8.7770E-01  0.000E+00  0.000E+00  0.000E+00  1.04298E+03  2.564E-01  1.200E+01  6.000E-01  1.085E+00
   1   10    7     6     2    8.7770E-01  8.7770E-01   0.0000E+00  0.000E+00  0.000E+00  0.000E+00  1.03822E+03  3.683E-02  1.200E+01  6.000E-01  1.012E+00
   1   11    7     6     3    0.0000E+00  0.0000E+00   0.0000E+00  0.000E+00  0.000E+00  0.000E+00  1.03364E+03  0.000E+00  1.200E+01  6.000E-01  1.000E+00
   1   12    7     6     4    0.0000E+00  0.0000E+00   0.0000E+00  0.000E+00  0.000E+00  0.000E+00  1.02909E+03  0.000E+00  1.200E+01  6.000E-01  3.423E-01
   1   13    7     6     5    0.0000E+00 -7.9559E-01   7.9559E-01  0.000E+00  0.000E+00  0.000E+00  1.02591E+03  0.000E+00  1.200E+01  2.400E-01 -1.105E+00
   1   14    9     7     1    1.5000E+02  1.9515E+00   1.4805E+02  0.000E+00  0.000E+00  0.000E+00  1.03987E+03  2.286E+00  5.529E+01  5.592E+00  1.163E-01
   1   13    8     7     2    1.4805E+02  2.9634E+00   1.4509E+02  0.000E+00  0.000E+00  0.000E+00  1.03477E+03  2.273E+00  5.523E+01  6.144E+00  1.608E-01
   1   13    7     7     3    1.4509E+02  2.5301E+00   1.4255E+02  0.000E+00  0.000E+00  0.000E+00  1.02968E+03  2.258E+00  5.516E+01  5.579E+00  1.512E-01
   1   13    6     8     1    1.4335E+02  7.6071E-01   1.4259E+02  0.000E+00  0.000E+00  0.000E+00  1.02464E+03  2.767E+00  4.012E+01  4.088E+00  6.203E-02
   1   13    5     8     2    1.4259E+02 -2.2135E+00   1.4480E+02  0.000E+00  0.000E+00  0.000E+00  1.01840E+03  2.772E+00  4.019E+01  4.096E+00 -1.802E-01
   1   13    4     8     3    1.4480E+02 -4.0463E+00   1.4885E+02  0.000E+00  0.000E+00  0.000E+00  1.01217E+03  2.794E+00  4.052E+01  4.129E+00 -3.267E-01
   1   13    3     8     4    1.4885E+02 -4.3037E+00   1.5315E+02  0.000E+00  0.000E+00  0.000E+00  1.00595E+03  2.824E+00  4.095E+01  4.173E+00 -3.438E-01
   1   13    2     8     5    1.5315E+02 -2.0989E+00   1.5525E+02  0.000E+00  0.000E+00  0.000E+00  9.99721E+02  2.846E+00  4.127E+01  4.206E+00 -1.664E-01
   1   13    1     8     6    1.5525E+02 -4.8273E-01   1.5573E+02  0.000E+00  0.000E+00  0.000E+00  9.94730E+02  2.855E+00  4.140E+01  2.531E+00 -6.357E-02



1
  VOLUMETRIC BUDGET FOR ENTIRE MODEL AT END OF TIME STEP  5 IN STRESS PERIOD   4
  ------------------------------------------------------------------------------

     CUMULATIVE VOLUMES      L**3       RATES FOR THIS TIME STEP      L**3/T
     ------------------                 ------------------------

           IN:                                      IN:
           ---                                      ---
             STORAGE =      447253.5312               STORAGE =           0.1996
       CONSTANT HEAD =           0.0000         CONSTANT HEAD =           0.0000
               WELLS =           0.0000                 WELLS =           0.0000
     HEAD DEP BOUNDS =     1753207.2500       HEAD DEP BOUNDS =           0.2083
        UZF RECHARGE =    93958464.0000          UZF RECHARGE =          18.1304
               GW ET =           0.0000                 GW ET =           0.0000
     SURFACE LEAKAGE =           0.0000       SURFACE LEAKAGE =           0.0000
      STREAM LEAKAGE =   366543616.0000        STREAM LEAKAGE =          43.2058

            TOTAL IN =   462702528.0000              TOTAL IN =          61.7442

          OUT:                                     OUT:
          ----                                     ----
             STORAGE =    81730496.0000               STORAGE =          22.6720
       CONSTANT HEAD =           0.0000         CONSTANT HEAD =           0.0000
               WELLS =   136449712.0000                 WELLS =          10.0000
     HEAD DEP BOUNDS =     2198750.0000       HEAD DEP BOUNDS =           0.2630
        UZF RECHARGE =           0.0000          UZF RECHARGE =           0.0000
               GW ET =   134371840.0000                 GW ET =          14.7661
     SURFACE LEAKAGE =           0.0000       SURFACE LEAKAGE =           0.0000
      STREAM LEAKAGE =   107698512.0000        STREAM LEAKAGE =          13.9407

           TOTAL OUT =   462449312.0000             TOTAL OUT =          61.6418

            IN - OUT =      253216.0000              IN - OUT =           0.1024

 PERCENT DISCREPANCY =           0.05     PERCENT DISCREPANCY =           0.17






          TIME SUMMARY AT END OF TIME STEP   5 IN STRESS PERIOD    4
                    SECONDS     MINUTES      HOURS       DAYS        YEARS
                    -----------------------------------------------------------
   TIME STEP LENGTH 1.21100E+05  2018.3      33.639      1.4016     3.83743E-03
 STRESS PERIOD TIME 5.04972E+05  8416.2      140.27      5.8446     1.60016E-02
         TOTAL TIME 8.38897E+06 1.39816E+05  2330.3      97.095     0.26583    
1
 
 SOLVING FOR HEAD 
     9 ITERATIONS FOR TIME STEP   6 IN STRESS PERIOD    4

 MAXIMUM HEAD CHANGE FOR EACH ITERATION:

    HEAD CHANGE   HEAD CHANGE   HEAD CHANGE   HEAD CHANGE   HEAD CHANGE
  LAYER,ROW,COL LAYER,ROW,COL LAYER,ROW,COL LAYER,ROW,COL LAYER,ROW,COL
 ----------------------------------------------------------------------
     0.2867E-01    0.1571E-01    0.7981E-02    0.4235E-02    0.2320E-02
  (  1,  3,  5) (  1,  3,  5) (  1,  3,  5) (  1,  3,  5) (  1,  3,  5)
     0.1240E-02    0.6360E-03    0.3603E-03    0.1498E-03
  (  1,  3,  5) (  1,  3,  5) (  1,  3,  5) (  1,  3,  5)


 NO OUTPUT CONTROL FOR STRESS PERIOD    4   TIME STEP   6
 
 SOLVING FOR HEAD 
    15 ITERATIONS FOR TIME STEP   7 IN STRESS PERIOD    4

 MAXIMUM HEAD CHANGE FOR EACH ITERATION:

    HEAD CHANGE   HEAD CHANGE   HEAD CHANGE   HEAD CHANGE   HEAD CHANGE
  LAYER,ROW,COL LAYER,ROW,COL LAYER,ROW,COL LAYER,ROW,COL LAYER,ROW,COL
 ----------------------------------------------------------------------
     0.7046E-01    0.4450E-01    0.2808E-01    0.1768E-01    0.1123E-01
  (  1,  3,  6) (  1,  3,  6) (  1,  3,  6) (  1,  3,  6) (  1,  3,  6)
     0.7036E-02    0.4483E-02    0.2777E-02    0.1752E-02    0.1119E-02
  (  1,  3,  6) (  1,  3,  6) (  1,  3,  6) (  1,  3,  6) (  1,  3,  6)
     0.7360E-03    0.4035E-03    0.2512E-03    0.2208E-03    0.1294E-03
  (  1,  3,  6) (  1,  3,  6) (  1,  3,  6) (  1,  3,  6) (  1,  3,  6)


 NO OUTPUT CONTROL FOR STRESS PERIOD    4   TIME STEP   7
 
 SOLVING FOR HEAD 
    15 ITERATIONS FOR TIME STEP   8 IN STRESS PERIOD    4

 MAXIMUM HEAD CHANGE FOR EACH ITERATION:

    HEAD CHANGE   HEAD CHANGE   HEAD CHANGE   HEAD CHANGE   HEAD CHANGE
  LAYER,ROW,COL LAYER,ROW,COL LAYER,ROW,COL LAYER,ROW,COL LAYER,ROW,COL
 ----------------------------------------------------------------------
     0.1038        0.6480E-01    0.4052E-01    0.2563E-01    0.1624E-01
  (  1,  3,  5) (  1,  3,  5) (  1,  3,  6) (  1,  3,  6) (  1,  3,  6)
     0.1031E-01    0.6486E-02    0.4121E-02    0.2611E-02    0.1651E-02
  (  1,  3,  6) (  1,  3,  6) (  1,  3,  6) (  1,  3,  6) (  1,  3,  6)
     0.1082E-02    0.6857E-03    0.4195E-03    0.2723E-03    0.1483E-03
  (  1,  3,  6) (  1,  3,  6) (  1,  3,  6) (  1,  3,  6) (  1,  3,  6)


 NO OUTPUT CONTROL FOR STRESS PERIOD    4   TIME STEP   8
 
 SOLVING FOR HEAD 
    15 ITERATIONS FOR TIME STEP   9 IN STRESS PERIOD    4

 MAXIMUM HEAD CHANGE FOR EACH ITERATION:

    HEAD CHANGE   HEAD CHANGE   HEAD CHANGE   HEAD CHANGE   HEAD CHANGE
  LAYER,ROW,COL LAYER,ROW,COL LAYER,ROW,COL LAYER,ROW,COL LAYER,ROW,COL
 ----------------------------------------------------------------------
     0.1154        0.7143E-01    0.4425E-01    0.2740E-01    0.1697E-01
  (  1,  3,  5) (  1,  3,  5) (  1,  3,  5) (  1,  3,  5) (  1,  3,  5)
     0.1054E-01    0.6515E-02    0.4041E-02    0.2479E-02    0.1561E-02
  (  1,  3,  5) (  1,  3,  5) (  1,  3,  5) (  1,  3,  5) (  1,  3,  5)
     0.9709E-03    0.5998E-03    0.3752E-03    0.2293E-03    0.1488E-03
  (  1,  3,  5) (  1,  3,  5) (  1,  3,  6) (  1,  3,  6) (  1,  3,  6)


 NO OUTPUT CONTROL FOR STRESS PERIOD    4   TIME STEP   9
 
 SOLVING FOR HEAD 
    14 ITERATIONS FOR TIME STEP  10 IN STRESS PERIOD    4

 MAXIMUM HEAD CHANGE FOR EACH ITERATION:

    HEAD CHANGE   HEAD CHANGE   HEAD CHANGE   HEAD CHANGE   HEAD CHANGE
  LAYER,ROW,COL LAYER,ROW,COL LAYER,ROW,COL LAYER,ROW,COL LAYER,ROW,COL
 ----------------------------------------------------------------------
     0.1041        0.6428E-01    0.3968E-01    0.2452E-01    0.1517E-01
  (  1,  3,  5) (  1,  3,  5) (  1,  3,  5) (  1,  3,  5) (  1,  3,  5)
     0.9395E-02    0.5801E-02    0.3594E-02    0.2211E-02    0.1328E-02
  (  1,  3,  5) (  1,  3,  5) (  1,  3,  5) (  1,  3,  5) (  1,  3,  5)
     0.8269E-03    0.5582E-03    0.3361E-03    0.1791E-03
  (  1,  3,  6) (  1,  3,  6) (  1,  3,  6) (  1,  3,  6)


 OUTPUT CONTROL FOR STRESS PERIOD    4   TIME STEP  10
    PRINT BUDGET
    SAVE BUDGET

            WELLS   PERIOD    4   STEP  10
 WELL      1   LAYER   1   ROW     6   COL     4   RATE    -1.00000    
 WELL      2   LAYER   1   ROW     6   COL     5   RATE    -1.00000    
 WELL      3   LAYER   1   ROW     7   COL     4   RATE    -1.00000    
 WELL      4   LAYER   1   ROW     7   COL     5   RATE    -1.00000    
 WELL      5   LAYER   1   ROW     8   COL     4   RATE    -1.00000    
 WELL      6   LAYER   1   ROW     8   COL     5   RATE    -1.00000    
 WELL      7   LAYER   1   ROW     9   COL     4   RATE    -1.00000    
 WELL      8   LAYER   1   ROW     9   COL     5   RATE    -1.00000    
 WELL      9   LAYER   1   ROW    10   COL     4   RATE    -1.00000    
 WELL     10   LAYER   1   ROW    10   COL     5   RATE    -1.00000    

  HEAD DEP BOUNDS   PERIOD    4   STEP  10
 BOUNDARY      1   LAYER   1   ROW    13   COL     1   RATE   -0.263109    
 BOUNDARY      2   LAYER   1   ROW    14   COL     9   RATE    0.208316    
 UBDSV3 SAVING "           GW ET" ON UNIT  61 AT TIME STEP 10, STRESS PERIOD   4
 UBDSV3 SAVING "    UZF INFILTR." ON UNIT  61 AT TIME STEP 10, STRESS PERIOD   4
 UBDSV3 SAVING "    UZF RECHARGE" ON UNIT  61 AT TIME STEP 10, STRESS PERIOD   4
 UBDSV3 SAVING " SURFACE LEAKAGE" ON UNIT  61 AT TIME STEP 10, STRESS PERIOD   4


UNSATURATED ZONE PACKAGE VOLUMETRIC BUDGET FOR  TIME STEP   10 STRESS PERIOD    4
  ------------------------------------------------------------------------------



     CUMULATIVE VOLUMES      L**3       RATES FOR THIS TIME STEP      L**3/T
     ------------------                 ------------------------

           IN:                                      IN:
           ---                                      ---
        INFILTRATION =   646614227.8705          INFILTRATION =         169.5000

          OUT:                                     OUT:
          ----                                     ----
              UZF ET =   778327079.4448                UZF ET =         104.4960
        UZF RECHARGE =   114510175.0472          UZF RECHARGE =          27.4949

            IN - OUT =  -246223026.6216              IN - OUT =          37.5092

          STORAGE:                                 STORAGE:
          --------                                 --------
      STORAGE CHANGE =  -246077062.5045        STORAGE CHANGE =          37.5658

 PERCENT DISCREPANCY IS DIFFERENCE BETWEEN IN-OUT MINUS CHANGE IN STORAGE
 DIVIDED BY THE AVERAGE OF IN AND OUT TIMES 100

 PERCENT DISCREPANCY =           0.00     PERCENT DISCREPANCY =          -0.03









 STREAM LISTING     PERIOD      4   STEP       10

 LAYER ROW COL. STREAM  RCH.  FLOW INTO     FLOW TO   FLOW OUT OF   OVRLND.     DIRECT     STREAM       STREAM     STREAM     STREAM   STREAMBED  STREAMBED
                SEG.NO.  NO.  STRM. RCH.    AQUIFER    STRM. RCH.    RUNOFF     PRECIP       ET          HEAD       DEPTH      WIDTH   CONDCTNC.   GRADIENT

   1    1    1     1     1    2.5000E+01  9.9469E-01   2.4005E+01  0.000E+00  0.000E+00  0.000E+00  1.09422E+03  1.173E+00  1.296E+01  5.833E-01  5.684E-01
   1    2    2     1     2    2.4005E+01  3.0144E+00   2.0991E+01  0.000E+00  0.000E+00  0.000E+00  1.08920E+03  1.142E+00  1.255E+01  8.784E-01  1.144E+00
   1    3    3     1     3    2.0991E+01  2.9123E+00   1.8079E+01  0.000E+00  0.000E+00  0.000E+00  1.08351E+03  1.093E+00  1.186E+01  7.116E-01  1.364E+00
   1    3    4     1     4    1.8079E+01  2.4742E+00   1.5604E+01  0.000E+00  0.000E+00  0.000E+00  1.07845E+03  1.047E+00  1.102E+01  6.114E-01  1.349E+00
   1    4    5     2     1    5.6045E+00  2.6663E+00   2.9382E+00  0.000E+00  0.000E+00  0.000E+00  1.07235E+03  4.183E-01  1.200E+01  7.800E-01  1.139E+00
   1    5    6     2     2    2.9382E+00  1.9573E+00   9.8095E-01  0.000E+00  0.000E+00  0.000E+00  1.06677E+03  2.621E-01  1.200E+01  6.000E-01  1.087E+00
   1    6    6     2     3    9.8095E-01  9.8095E-01   0.0000E+00  0.000E+00  0.000E+00  0.000E+00  1.06181E+03  1.947E-02  1.200E+01  6.000E-01  1.006E+00
   1    7    6     2     4    0.0000E+00  0.0000E+00   0.0000E+00  0.000E+00  0.000E+00  0.000E+00  1.05708E+03  0.000E+00  1.200E+01  6.000E-01  1.000E+00
   1    8    6     2     5    0.0000E+00  0.0000E+00   0.0000E+00  0.000E+00  0.000E+00  0.000E+00  1.05236E+03  0.000E+00  1.200E+01  6.000E-01  1.000E+00
   1    3    5     3     1    1.0000E+01  2.1436E+00   7.8564E+00  0.000E+00  0.000E+00  0.000E+00  1.07555E+03  1.909E+00  9.636E+00  7.227E-01  1.483E+00
   1    3    6     3     2    7.8564E+00  7.2681E-01   7.1296E+00  0.000E+00  0.000E+00  0.000E+00  1.07264E+03  1.727E+00  8.909E+00  6.682E-01  5.439E-01
   1    3    7     3     3    7.1296E+00  3.2500E-01   6.8046E+00  0.000E+00  0.000E+00  0.000E+00  1.06987E+03  1.555E+00  8.218E+00  5.547E-01  2.929E-01
   1    4    8     3     4    6.8046E+00  1.5876E+00   5.2170E+00  0.000E+00  0.000E+00  0.000E+00  1.06682E+03  1.364E+00  7.455E+00  6.709E-01  1.183E+00
   1    5    8     3     5    5.2170E+00  1.5790E+00   3.6381E+00  0.000E+00  0.000E+00  0.000E+00  1.06362E+03  1.164E+00  6.655E+00  4.991E-01  1.582E+00
   1    6    8     3     6    3.6381E+00  5.5980E-01   3.0783E+00  0.000E+00  0.000E+00  0.000E+00  1.06158E+03  1.036E+00  6.145E+00  1.844E-01  1.518E+00
   1    5   10     4     1    1.0000E+01  9.0525E-01   9.0947E+00  0.000E+00  0.000E+00  0.000E+00  1.07835E+03  6.210E-01  1.000E+01  2.500E-01  1.207E+00
   1    5    9     4     2    9.0947E+00  1.7835E+00   7.3113E+00  0.000E+00  0.000E+00  0.000E+00  1.07148E+03  5.670E-01  1.000E+01  5.000E-01  1.189E+00
   1    6    8     4     3    7.3113E+00  1.2257E+00   6.0855E+00  0.000E+00  0.000E+00  0.000E+00  1.06368E+03  5.021E-01  1.000E+01  3.500E-01  1.167E+00
   1    6    8     5     1    9.1638E+00  1.2263E+00   7.9375E+00  0.000E+00  0.000E+00  0.000E+00  1.05864E+03  6.358E-01  1.377E+01  5.509E-01  7.421E-01
   1    7    7     5     2    7.9375E+00  2.1641E+00   5.7734E+00  0.000E+00  0.000E+00  0.000E+00  1.05409E+03  5.885E-01  1.206E+01  6.031E-01  1.196E+00
   1    8    7     5     3    5.7734E+00  1.2554E+00   4.5181E+00  0.000E+00  0.000E+00  0.000E+00  1.04978E+03  5.323E-01  1.015E+01  3.554E-01  1.177E+00
   1    8    6     5     4    4.5181E+00  7.7701E-01   3.7410E+00  0.000E+00  0.000E+00  0.000E+00  1.04674E+03  4.928E-01  8.898E+00  2.225E-01  1.164E+00
   1    9    6     6     1    3.7410E+00  1.9946E+00   1.7465E+00  0.000E+00  0.000E+00  0.000E+00  1.04305E+03  3.243E-01  1.200E+01  6.000E-01  1.108E+00
   1   10    7     6     2    1.7465E+00  1.7465E+00   0.0000E+00  0.000E+00  0.000E+00  0.000E+00  1.03824E+03  5.564E-02  1.200E+01  6.000E-01  1.019E+00
   1   11    7     6     3    0.0000E+00  0.0000E+00   0.0000E+00  0.000E+00  0.000E+00  0.000E+00  1.03364E+03  0.000E+00  1.200E+01  6.000E-01  1.000E+00
   1   12    7     6     4    0.0000E+00  0.0000E+00   0.0000E+00  0.000E+00  0.000E+00  0.000E+00  1.02909E+03  0.000E+00  1.200E+01  6.000E-01  3.355E-01
   1   13    7     6     5    0.0000E+00 -8.0102E-01   8.0102E-01  0.000E+00  0.000E+00  0.000E+00  1.02591E+03  0.000E+00  1.200E+01  2.400E-01 -1.113E+00
   1   14    9     7     1    1.5000E+02  1.9505E+00   1.4805E+02  0.000E+00  0.000E+00  0.000E+00  1.03987E+03  2.286E+00  5.529E+01  5.592E+00  1.163E-01
   1   13    8     7     2    1.4805E+02  2.9623E+00   1.4509E+02  0.000E+00  0.000E+00  0.000E+00  1.03477E+03  2.273E+00  5.523E+01  6.144E+00  1.607E-01
   1   13    7     7     3    1.4509E+02  2.4060E+00   1.4268E+02  0.000E+00  0.000E+00  0.000E+00  1.02968E+03  2.259E+00  5.516E+01  5.579E+00  1.438E-01
   1   13    6     8     1    1.4348E+02  6.2547E-01   1.4286E+02  0.000E+00  0.000E+00  0.000E+00  1.02464E+03  2.768E+00  4.014E+01  4.090E+00  5.097E-02
   1   13    5     8     2    1.4286E+02 -2.4709E+00   1.4533E+02  0.000E+00  0.000E+00  0.000E+00  1.01840E+03  2.775E+00  4.023E+01  4.100E+00 -2.009E-01
   1   13    4     8     3    1.4533E+02 -4.2592E+00   1.4959E+02  0.000E+00  0.000E+00  0.000E+00  1.01217E+03  2.799E+00  4.058E+01  4.136E+00 -3.433E-01
   1   13    3     8     4    1.4959E+02 -4.5438E+00   1.5413E+02  0.000E+00  0.000E+00  0.000E+00  1.00595E+03  2.830E+00  4.103E+01  4.181E+00 -3.622E-01
   1   13    2     8     5    1.5413E+02 -2.1012E+00   1.5623E+02  0.000E+00  0.000E+00  0.000E+00  9.99728E+02  2.853E+00  4.137E+01  4.216E+00 -1.662E-01
   1   13    1     8     6    1.5623E+02 -4.7476E-01   1.5671E+02  0.000E+00  0.000E+00  0.000E+00  9.94737E+02  2.862E+00  4.150E+01  2.537E+00 -6.237E-02



1
  VOLUMETRIC BUDGET FOR ENTIRE MODEL AT END OF TIME STEP 10 IN STRESS PERIOD   4
  ------------------------------------------------------------------------------

     CUMULATIVE VOLUMES      L**3       RATES FOR THIS TIME STEP      L**3/T
     ------------------                 ------------------------

           IN:                                      IN:
           ---                                      ---
             STORAGE =      581060.6250               STORAGE =           0.1433
       CONSTANT HEAD =           0.0000         CONSTANT HEAD =           0.0000
               WELLS =           0.0000                 WELLS =           0.0000
     HEAD DEP BOUNDS =     1922624.7500       HEAD DEP BOUNDS =           0.2083
        UZF RECHARGE =   114510176.0000          UZF RECHARGE =          27.4949
               GW ET =           0.0000                 GW ET =           0.0000
     SURFACE LEAKAGE =           0.0000       SURFACE LEAKAGE =           0.0000
      STREAM LEAKAGE =   401567072.0000        STREAM LEAKAGE =          42.9442

            TOTAL IN =   518580928.0000              TOTAL IN =          70.7906

          OUT:                                     OUT:
          ----                                     ----
             STORAGE =   105369248.0000               STORAGE =          30.7616
       CONSTANT HEAD =           0.0000         CONSTANT HEAD =           0.0000
               WELLS =   144582320.0000                 WELLS =          10.0000
     HEAD DEP BOUNDS =     2412684.7500       HEAD DEP BOUNDS =           0.2631
        UZF RECHARGE =           0.0000          UZF RECHARGE =           0.0000
               GW ET =   146513040.0000                 GW ET =          15.0826
     SURFACE LEAKAGE =           0.0000       SURFACE LEAKAGE =           0.0000
      STREAM LEAKAGE =   119433560.0000        STREAM LEAKAGE =          14.6510

           TOTAL OUT =   518310848.0000             TOTAL OUT =          70.7583

            IN - OUT =      270080.0000              IN - OUT =       3.2379E-02

 PERCENT DISCREPANCY =           0.05     PERCENT DISCREPANCY =           0.05






          TIME SUMMARY AT END OF TIME STEP  10 IN STRESS PERIOD    4
                    SECONDS     MINUTES      HOURS       DAYS        YEARS
                    -----------------------------------------------------------
   TIME STEP LENGTH 1.95033E+05  3250.6      54.176      2.2573     6.18023E-03
 STRESS PERIOD TIME 1.31823E+06  21971.      366.18      15.257     4.17723E-02
         TOTAL TIME 9.20223E+06 1.53371E+05  2556.2      106.51     0.29160    
1
 
 SOLVING FOR HEAD 
    14 ITERATIONS FOR TIME STEP  11 IN STRESS PERIOD    4

 MAXIMUM HEAD CHANGE FOR EACH ITERATION:

    HEAD CHANGE   HEAD CHANGE   HEAD CHANGE   HEAD CHANGE   HEAD CHANGE
  LAYER,ROW,COL LAYER,ROW,COL LAYER,ROW,COL LAYER,ROW,COL LAYER,ROW,COL
 ----------------------------------------------------------------------
     0.9248E-01    0.5668E-01    0.3468E-01    0.2129E-01    0.1304E-01
  (  1,  3,  5) (  1,  3,  5) (  1,  3,  5) (  1,  3,  5) (  1,  3,  5)
     0.8038E-02    0.4919E-02    0.3059E-02    0.1900E-02    0.1177E-02
  (  1,  3,  5) (  1,  3,  5) (  1,  3,  6) (  1,  3,  6) (  1,  3,  6)
     0.7856E-03    0.4636E-03    0.2765E-03    0.1774E-03
  (  1,  3,  6) (  1,  3,  6) (  1,  3,  6) (  1,  3,  6)


 NO OUTPUT CONTROL FOR STRESS PERIOD    4   TIME STEP  11
 
 SOLVING FOR HEAD 
    14 ITERATIONS FOR TIME STEP  12 IN STRESS PERIOD    4

 MAXIMUM HEAD CHANGE FOR EACH ITERATION:

    HEAD CHANGE   HEAD CHANGE   HEAD CHANGE   HEAD CHANGE   HEAD CHANGE
  LAYER,ROW,COL LAYER,ROW,COL LAYER,ROW,COL LAYER,ROW,COL LAYER,ROW,COL
 ----------------------------------------------------------------------
     0.8261E-01    0.5051E-01    0.3088E-01    0.1892E-01    0.1158E-01
  (  1,  3,  5) (  1,  3,  5) (  1,  3,  5) (  1,  3,  5) (  1,  3,  5)
     0.7129E-02    0.4437E-02    0.2760E-02    0.1754E-02    0.1085E-02
  (  1,  3,  6) (  1,  3,  6) (  1,  3,  6) (  1,  3,  6) (  1,  3,  6)
     0.6857E-03    0.4041E-03    0.2806E-03    0.1233E-03
  (  1,  3,  6) (  1,  3,  6) (  1,  3,  6) (  1,  3,  6)


 NO OUTPUT CONTROL FOR STRESS PERIOD    4   TIME STEP  12
 
 SOLVING FOR HEAD 
    14 ITERATIONS FOR TIME STEP  13 IN STRESS PERIOD    4

 MAXIMUM HEAD CHANGE FOR EACH ITERATION:

    HEAD CHANGE   HEAD CHANGE   HEAD CHANGE   HEAD CHANGE   HEAD CHANGE
  LAYER,ROW,COL LAYER,ROW,COL LAYER,ROW,COL LAYER,ROW,COL LAYER,ROW,COL
 ----------------------------------------------------------------------
     0.6948E-01    0.4218E-01    0.2555E-01    0.1576E-01    0.9728E-02
  (  1,  3,  5) (  1,  3,  5) (  1,  3,  5) (  1,  3,  6) (  1,  3,  6)
     0.6033E-02    0.3687E-02    0.2340E-02    0.1415E-02    0.8654E-03
  (  1,  3,  6) (  1,  3,  6) (  1,  3,  6) (  1,  3,  6) (  1,  3,  6)
     0.5365E-03    0.3257E-03    0.2101E-03    0.1145E-03
  (  1,  3,  6) (  1,  3,  6) (  1,  3,  6) (  1,  3,  6)


 NO OUTPUT CONTROL FOR STRESS PERIOD    4   TIME STEP  13
 
 SOLVING FOR HEAD 
    14 ITERATIONS FOR TIME STEP  14 IN STRESS PERIOD    4

 MAXIMUM HEAD CHANGE FOR EACH ITERATION:

    HEAD CHANGE   HEAD CHANGE   HEAD CHANGE   HEAD CHANGE   HEAD CHANGE
  LAYER,ROW,COL LAYER,ROW,COL LAYER,ROW,COL LAYER,ROW,COL LAYER,ROW,COL
 ----------------------------------------------------------------------
     0.5919E-01    0.3647E-01    0.2238E-01    0.1379E-01    0.8565E-02
  (  1,  3,  5) (  1,  3,  6) (  1,  3,  6) (  1,  3,  6) (  1,  3,  6)
     0.5211E-02    0.3262E-02    0.2001E-02    0.1193E-02    0.7920E-03
  (  1,  3,  6) (  1,  3,  6) (  1,  3,  6) (  1,  3,  6) (  1,  3,  6)
     0.4761E-03    0.2540E-03    0.2077E-03    0.1205E-03
  (  1,  3,  6) (  1,  3,  6) (  1,  3,  6) (  1,  3,  6)


 NO OUTPUT CONTROL FOR STRESS PERIOD    4   TIME STEP  14
 
 SOLVING FOR HEAD 
    12 ITERATIONS FOR TIME STEP  15 IN STRESS PERIOD    4

 MAXIMUM HEAD CHANGE FOR EACH ITERATION:

    HEAD CHANGE   HEAD CHANGE   HEAD CHANGE   HEAD CHANGE   HEAD CHANGE
  LAYER,ROW,COL LAYER,ROW,COL LAYER,ROW,COL LAYER,ROW,COL LAYER,ROW,COL
 ----------------------------------------------------------------------
     0.5328E-01    0.3183E-01    0.1949E-01    0.1196E-01    0.7326E-02
  (  1,  3,  7) (  1,  3,  6) (  1,  3,  6) (  1,  3,  6) (  1,  3,  6)
     0.4491E-02    0.2713E-02    0.1664E-02    0.1025E-02    0.6351E-03
  (  1,  3,  6) (  1,  3,  6) (  1,  3,  6) (  1,  3,  6) (  1,  3,  6)
     0.3845E-03    0.1637E-03
  (  1,  3,  6) (  1,  3,  6)


 OUTPUT CONTROL FOR STRESS PERIOD    4   TIME STEP  15
    PRINT BUDGET
    PRINT HEAD FOR ALL LAYERS
    SAVE HEAD FOR ALL LAYERS
    SAVE BUDGET

            WELLS   PERIOD    4   STEP  15
 WELL      1   LAYER   1   ROW     6   COL     4   RATE    -1.00000    
 WELL      2   LAYER   1   ROW     6   COL     5   RATE    -1.00000    
 WELL      3   LAYER   1   ROW     7   COL     4   RATE    -1.00000    
 WELL      4   LAYER   1   ROW     7   COL     5   RATE    -1.00000    
 WELL      5   LAYER   1   ROW     8   COL     4   RATE    -1.00000    
 WELL      6   LAYER   1   ROW     8   COL     5   RATE    -1.00000    
 WELL      7   LAYER   1   ROW     9   COL     4   RATE    -1.00000    
 WELL      8   LAYER   1   ROW     9   COL     5   RATE    -1.00000    
 WELL      9   LAYER   1   ROW    10   COL     4   RATE    -1.00000    
 WELL     10   LAYER   1   ROW    10   COL     5   RATE    -1.00000    

  HEAD DEP BOUNDS   PERIOD    4   STEP  15
 BOUNDARY      1   LAYER   1   ROW    13   COL     1   RATE   -0.263658    
 BOUNDARY      2   LAYER   1   ROW    14   COL     9   RATE    0.208303    
 UBDSV3 SAVING "           GW ET" ON UNIT  61 AT TIME STEP 15, STRESS PERIOD   4
 UBDSV3 SAVING "    UZF INFILTR." ON UNIT  61 AT TIME STEP 15, STRESS PERIOD   4
 UBDSV3 SAVING "    UZF RECHARGE" ON UNIT  61 AT TIME STEP 15, STRESS PERIOD   4
 UBDSV3 SAVING " SURFACE LEAKAGE" ON UNIT  61 AT TIME STEP 15, STRESS PERIOD   4


UNSATURATED ZONE PACKAGE VOLUMETRIC BUDGET FOR  TIME STEP   15 STRESS PERIOD    4
  ------------------------------------------------------------------------------



     CUMULATIVE VOLUMES      L**3       RATES FOR THIS TIME STEP      L**3/T
     ------------------                 ------------------------

           IN:                                      IN:
           ---                                      ---
        INFILTRATION =   868619628.5960          INFILTRATION =         169.5000

          OUT:                                     OUT:
          ----                                     ----
              UZF ET =   897568010.6003                UZF ET =          91.5088
        UZF RECHARGE =   149024153.4881          UZF RECHARGE =          25.7672

            IN - OUT =  -177972535.4924              IN - OUT =          52.2240

          STORAGE:                                 STORAGE:
          --------                                 --------
      STORAGE CHANGE =  -177775331.8926        STORAGE CHANGE =          52.2340

 PERCENT DISCREPANCY IS DIFFERENCE BETWEEN IN-OUT MINUS CHANGE IN STORAGE
 DIVIDED BY THE AVERAGE OF IN AND OUT TIMES 100

 PERCENT DISCREPANCY =           0.00     PERCENT DISCREPANCY =          -0.01









 STREAM LISTING     PERIOD      4   STEP       15

 LAYER ROW COL. STREAM  RCH.  FLOW INTO     FLOW TO   FLOW OUT OF   OVRLND.     DIRECT     STREAM       STREAM     STREAM     STREAM   STREAMBED  STREAMBED
                SEG.NO.  NO.  STRM. RCH.    AQUIFER    STRM. RCH.    RUNOFF     PRECIP       ET          HEAD       DEPTH      WIDTH   CONDCTNC.   GRADIENT

   1    1    1     1     1    2.5000E+01  9.8791E-01   2.4012E+01  0.000E+00  0.000E+00  0.000E+00  1.09422E+03  1.173E+00  1.296E+01  5.834E-01  5.645E-01
   1    2    2     1     2    2.4012E+01  3.0045E+00   2.1008E+01  0.000E+00  0.000E+00  0.000E+00  1.08920E+03  1.142E+00  1.255E+01  8.786E-01  1.140E+00
   1    3    3     1     3    2.1008E+01  2.9137E+00   1.8094E+01  0.000E+00  0.000E+00  0.000E+00  1.08351E+03  1.093E+00  1.187E+01  7.119E-01  1.364E+00
   1    3    4     1     4    1.8094E+01  2.4754E+00   1.5618E+01  0.000E+00  0.000E+00  0.000E+00  1.07845E+03  1.047E+00  1.102E+01  6.117E-01  1.349E+00
   1    4    5     2     1    5.6185E+00  2.6669E+00   2.9516E+00  0.000E+00  0.000E+00  0.000E+00  1.07235E+03  4.191E-01  1.200E+01  7.800E-01  1.140E+00
   1    5    6     2     2    2.9516E+00  1.9579E+00   9.9370E-01  0.000E+00  0.000E+00  0.000E+00  1.06677E+03  2.631E-01  1.200E+01  6.000E-01  1.088E+00
   1    6    6     2     3    9.9370E-01  9.9370E-01   0.0000E+00  0.000E+00  0.000E+00  0.000E+00  1.06181E+03  1.962E-02  1.200E+01  6.000E-01  1.007E+00
   1    7    6     2     4    0.0000E+00  0.0000E+00   0.0000E+00  0.000E+00  0.000E+00  0.000E+00  1.05708E+03  0.000E+00  1.200E+01  6.000E-01  1.000E+00
   1    8    6     2     5    0.0000E+00  0.0000E+00   0.0000E+00  0.000E+00  0.000E+00  0.000E+00  1.05236E+03  0.000E+00  1.200E+01  6.000E-01  1.000E+00
   1    3    5     3     1    1.0000E+01  1.4908E+00   8.5092E+00  0.000E+00  0.000E+00  0.000E+00  1.07555E+03  1.909E+00  9.636E+00  7.227E-01  1.031E+00
   1    3    6     3     2    8.5092E+00  1.3812E-01   8.3711E+00  0.000E+00  0.000E+00  0.000E+00  1.07264E+03  1.727E+00  8.909E+00  6.682E-01  1.034E-01
   1    3    7     3     3    8.3711E+00 -7.0112E-02   8.4412E+00  0.000E+00  0.000E+00  0.000E+00  1.06987E+03  1.555E+00  8.218E+00  5.547E-01 -6.320E-02
   1    4    8     3     4    8.4412E+00  1.5831E+00   6.8581E+00  0.000E+00  0.000E+00  0.000E+00  1.06682E+03  1.364E+00  7.455E+00  6.709E-01  1.180E+00
   1    5    8     3     5    6.8581E+00  1.5790E+00   5.2791E+00  0.000E+00  0.000E+00  0.000E+00  1.06362E+03  1.164E+00  6.655E+00  4.991E-01  1.582E+00
   1    6    8     3     6    5.2791E+00  5.5980E-01   4.7193E+00  0.000E+00  0.000E+00  0.000E+00  1.06158E+03  1.036E+00  6.145E+00  1.844E-01  1.518E+00
   1    5   10     4     1    1.0000E+01  9.0525E-01   9.0947E+00  0.000E+00  0.000E+00  0.000E+00  1.07835E+03  6.210E-01  1.000E+01  2.500E-01  1.207E+00
   1    5    9     4     2    9.0947E+00  1.7835E+00   7.3113E+00  0.000E+00  0.000E+00  0.000E+00  1.07148E+03  5.670E-01  1.000E+01  5.000E-01  1.189E+00
   1    6    8     4     3    7.3113E+00  1.2257E+00   6.0855E+00  0.000E+00  0.000E+00  0.000E+00  1.06368E+03  5.021E-01  1.000E+01  3.500E-01  1.167E+00
   1    6    8     5     1    1.0805E+01  1.3311E+00   9.4737E+00  0.000E+00  0.000E+00  0.000E+00  1.05867E+03  6.749E-01  1.525E+01  6.102E-01  7.272E-01
   1    7    7     5     2    9.4737E+00  2.4452E+00   7.0285E+00  0.000E+00  0.000E+00  0.000E+00  1.05413E+03  6.279E-01  1.348E+01  6.740E-01  1.209E+00
   1    8    7     5     3    7.0285E+00  1.4348E+00   5.5938E+00  0.000E+00  0.000E+00  0.000E+00  1.04982E+03  5.717E-01  1.148E+01  4.017E-01  1.191E+00
   1    8    6     5     4    5.5938E+00  8.9664E-01   4.6971E+00  0.000E+00  0.000E+00  0.000E+00  1.04678E+03  5.322E-01  1.015E+01  2.538E-01  1.177E+00
   1    9    6     6     1    4.6971E+00  2.0321E+00   2.6650E+00  0.000E+00  0.000E+00  0.000E+00  1.04311E+03  3.868E-01  1.200E+01  6.000E-01  1.129E+00
   1   10    7     6     2    2.6650E+00  1.9456E+00   7.1941E-01  0.000E+00  0.000E+00  0.000E+00  1.03842E+03  2.427E-01  1.200E+01  6.000E-01  1.081E+00
   1   11    7     6     3    7.1941E-01  7.1941E-01   0.0000E+00  0.000E+00  0.000E+00  0.000E+00  1.03367E+03  3.268E-02  1.200E+01  6.000E-01  1.011E+00
   1   12    7     6     4    0.0000E+00  0.0000E+00   0.0000E+00  0.000E+00  0.000E+00  0.000E+00  1.02909E+03  0.000E+00  1.200E+01  6.000E-01  3.197E-01
   1   13    7     6     5    0.0000E+00 -8.2061E-01   8.2061E-01  0.000E+00  0.000E+00  0.000E+00  1.02591E+03  0.000E+00  1.200E+01  2.400E-01 -1.140E+00
   1   14    9     7     1    1.5000E+02  1.9485E+00   1.4805E+02  0.000E+00  0.000E+00  0.000E+00  1.03987E+03  2.286E+00  5.529E+01  5.592E+00  1.161E-01
   1   13    8     7     2    1.4805E+02  2.9390E+00   1.4511E+02  0.000E+00  0.000E+00  0.000E+00  1.03477E+03  2.273E+00  5.523E+01  6.144E+00  1.594E-01
   1   13    7     7     3    1.4511E+02  1.9582E+00   1.4315E+02  0.000E+00  0.000E+00  0.000E+00  1.02968E+03  2.260E+00  5.517E+01  5.579E+00  1.170E-01
   1   13    6     8     1    1.4397E+02  2.6081E-01   1.4371E+02  0.000E+00  0.000E+00  0.000E+00  1.02465E+03  2.773E+00  4.021E+01  4.097E+00  2.122E-02
   1   13    5     8     2    1.4371E+02 -2.6013E+00   1.4632E+02  0.000E+00  0.000E+00  0.000E+00  1.01841E+03  2.781E+00  4.033E+01  4.110E+00 -2.110E-01
   1   13    4     8     3    1.4632E+02 -4.3621E+00   1.5068E+02  0.000E+00  0.000E+00  0.000E+00  1.01218E+03  2.806E+00  4.069E+01  4.146E+00 -3.507E-01
   1   13    3     8     4    1.5068E+02 -4.6387E+00   1.5532E+02  0.000E+00  0.000E+00  0.000E+00  1.00596E+03  2.838E+00  4.115E+01  4.193E+00 -3.688E-01
   1   13    2     8     5    1.5532E+02 -2.1147E+00   1.5743E+02  0.000E+00  0.000E+00  0.000E+00  9.99736E+02  2.861E+00  4.149E+01  4.228E+00 -1.667E-01
   1   13    1     8     6    1.5743E+02 -4.9185E-01   1.5792E+02  0.000E+00  0.000E+00  0.000E+00  9.94745E+02  2.870E+00  4.162E+01  2.544E+00 -6.443E-02



1
              HEAD IN LAYER   1 AT END OF TIME STEP  15 IN STRESS PERIOD    4
  ---------------------------------------------------------------------------

           1       2       3       4       5       6       7       8       9      10
 ...................................................................................
   1  1092.53 1088.69 6999.00 6999.00 6999.00 6999.00 6999.00 6999.00 6999.00 6999.00
   2  1089.19 1085.78 1079.11 6999.00 6999.00 1071.88 1071.05 1070.40 6999.00 6999.00
   3  6999.00 1077.40 1074.31 1070.19 1073.48 1072.43 1070.00 1068.03 6999.00 6999.00
   4  1067.82 1068.32 1066.51 1062.93 1061.90 1060.65 1061.45 1064.46 1063.77 6999.00
   5  1063.68 1061.24 1058.50 1056.43 1056.20 1056.88 1056.92 1059.30 1062.91 1065.33
   6  1058.99 1055.29 1052.05 1050.17 1050.52 1052.25 1053.76 1056.49 1059.29 1063.63
   7  1055.33 1049.61 1046.15 1044.47 1045.16 1047.21 1050.00 1052.51 1054.07 6999.00
   8  6999.00 1042.26 1040.07 1038.89 1039.85 1042.13 1044.19 1046.95 1049.12 6999.00
   9  6999.00 1035.32 1034.10 1033.57 1034.85 1037.26 1038.34 1040.47 1043.70 6999.00
  10  6999.00 1028.31 1028.20 1028.77 1030.31 1032.43 1034.15 1035.97 1039.95 1044.37
  11  6999.00 1019.59 1021.05 1024.33 1026.42 1028.63 1030.36 1032.69 1036.24 6999.00
  12  1001.16 1008.81 1014.05 1018.80 1022.47 1025.72 1028.13 1031.04 1034.83 6999.00
  13   994.94 1000.24 1007.07 1013.23 1019.04 1024.58 1029.33 1034.29 1036.48 6999.00
  14  6999.00 1005.81 1011.51 1016.23 1021.26 1026.08 1030.47 1035.35 1039.52 6999.00
  15  6999.00 6999.00 1018.83 1021.82 1025.56 1028.54 6999.00 6999.00 6999.00 6999.00

 HEAD WILL BE SAVED ON UNIT   58 AT END OF TIME STEP  15, STRESS PERIOD    4
1
  VOLUMETRIC BUDGET FOR ENTIRE MODEL AT END OF TIME STEP 15 IN STRESS PERIOD   4
  ------------------------------------------------------------------------------

     CUMULATIVE VOLUMES      L**3       RATES FOR THIS TIME STEP      L**3/T
     ------------------                 ------------------------

           IN:                                      IN:
           ---                                      ---
             STORAGE =      716074.3125               STORAGE =       8.3693E-02
       CONSTANT HEAD =           0.0000         CONSTANT HEAD =           0.0000
               WELLS =           0.0000                 WELLS =           0.0000
     HEAD DEP BOUNDS =     2195459.2500       HEAD DEP BOUNDS =           0.2083
        UZF RECHARGE =   149024144.0000          UZF RECHARGE =          25.7672
               GW ET =           0.0000                 GW ET =           0.0000
     SURFACE LEAKAGE =           0.0000       SURFACE LEAKAGE =           0.0000
      STREAM LEAKAGE =   457186144.0000        STREAM LEAKAGE =          42.1766

            TOTAL IN =   609121792.0000              TOTAL IN =          68.2358

          OUT:                                     OUT:
          ----                                     ----
             STORAGE =   142798016.0000               STORAGE =          27.3643
       CONSTANT HEAD =           0.0000         CONSTANT HEAD =           0.0000
               WELLS =   157679968.0000                 WELLS =          10.0000
     HEAD DEP BOUNDS =     2757577.2500       HEAD DEP BOUNDS =           0.2637
        UZF RECHARGE =           0.0000          UZF RECHARGE =           0.0000
               GW ET =   166612832.0000                 GW ET =          15.4811
     SURFACE LEAKAGE =           0.0000       SURFACE LEAKAGE =           0.0000
      STREAM LEAKAGE =   138971184.0000        STREAM LEAKAGE =          15.0994

           TOTAL OUT =   608819584.0000             TOTAL OUT =          68.2085

            IN - OUT =      302208.0000              IN - OUT =       2.7298E-02

 PERCENT DISCREPANCY =           0.05     PERCENT DISCREPANCY =           0.04






          TIME SUMMARY AT END OF TIME STEP  15 IN STRESS PERIOD    4
                    SECONDS     MINUTES      HOURS       DAYS        YEARS
                    -----------------------------------------------------------
   TIME STEP LENGTH 3.14103E+05  5235.0      87.251      3.6354     9.95332E-03
 STRESS PERIOD TIME 2.62800E+06  43800.      730.00      30.417     8.32763E-02
         TOTAL TIME 1.05120E+07 1.75200E+05  2920.0      121.67     0.33311    
1
1
                            STRESS PERIOD NO.    5, LENGTH =   2628000.    
                            -----------------------------------------------

                              NUMBER OF TIME STEPS =    15

                               MULTIPLIER FOR DELT =     1.100

                            INITIAL TIME STEP SIZE =   82713.07    

 WELL NO.  LAYER   ROW   COL   STRESS RATE         
 --------------------------------------------------
      1      1      6      4      -3.000    
      2      1      6      5      -3.000    
      3      1      7      4      -3.000    
      4      1      7      5      -3.000    
      5      1      8      4      -3.000    
      6      1      8      5      -3.000    
      7      1      9      4      -3.000    
      8      1      9      5      -3.000    
      9      1     10      4      -3.000    
     10      1     10      5      -3.000    

     10 WELLS

 REUSING NON-PARAMETER GHB CELLS FROM LAST STRESS PERIOD

      2 GHB CELLS

 REUSING STREAM SEGMENT DATA FROM LAST STRESS PERIOD



            AREAL INFILTRATION RATE
 READING ON UNIT   19 WITH FORMAT: (10F4.0)            

            1           2           3           4           5           6           7           8           9          10
 ........................................................................................................................
   1   5.0000E-09  1.0000E-08   0.000       0.000       0.000       0.000       0.000       0.000       0.000       0.000    
   2   1.0000E-08  5.0000E-09  1.0000E-08   0.000       0.000      4.0000E-08  4.0000E-08  2.5000E-08   0.000       0.000    
   3    0.000      2.5000E-08  5.0000E-09  5.0000E-09  4.0000E-08  4.0000E-08  2.5000E-08  2.5000E-08   0.000       0.000    
   4   4.0000E-08  2.5000E-08  5.0000E-09  5.0000E-09  5.0000E-09  5.0000E-09  5.0000E-09  5.0000E-09  1.0000E-08   0.000    
   5   4.0000E-08  2.5000E-08  5.0000E-09  5.0000E-09  5.0000E-09  5.0000E-09  5.0000E-09  5.0000E-09  5.0000E-09  5.0000E-09
   6   4.0000E-08  2.5000E-08  2.5000E-08  1.0000E-08  1.0000E-08  5.0000E-09  5.0000E-09  5.0000E-09  5.0000E-09  2.5000E-08
   7   4.0000E-08  2.5000E-08  2.5000E-08  1.0000E-08  1.0000E-08  5.0000E-09  5.0000E-09  1.0000E-08  1.0000E-08   0.000    
   8    0.000      2.5000E-08  2.5000E-08  1.0000E-08  1.0000E-08  5.0000E-09  5.0000E-09  1.0000E-08  2.5000E-08   0.000    
   9    0.000      2.5000E-08  2.5000E-08  1.0000E-08  1.0000E-08  5.0000E-09  5.0000E-09  1.0000E-08  2.5000E-08   0.000    
  10    0.000      2.5000E-08  2.5000E-08  1.0000E-08  1.0000E-08  5.0000E-09  5.0000E-09  1.0000E-08  2.5000E-08  4.0000E-08
  11    0.000      5.0000E-09  5.0000E-09  5.0000E-09  5.0000E-09  5.0000E-09  5.0000E-09  1.0000E-08  2.5000E-08   0.000    
  12   5.0000E-09  5.0000E-09  5.0000E-09  5.0000E-09  5.0000E-09  5.0000E-09  5.0000E-09  5.0000E-09  1.0000E-08   0.000    
  13   5.0000E-09  5.0000E-09  1.0000E-08  1.0000E-08  1.0000E-08  1.0000E-08  1.0000E-08  5.0000E-09  5.0000E-09   0.000    
  14    0.000      1.0000E-08  2.5000E-08  2.5000E-08  2.5000E-08  2.5000E-08  2.5000E-08  1.0000E-08  5.0000E-09   0.000    
  15    0.000       0.000      4.0000E-08  4.0000E-08  4.0000E-08  4.0000E-08   0.000       0.000       0.000       0.000    

USING ET RATE FROM PREVIOUS STRESS PERIOD. CURRENT PERIOD IS:       5

 USING ET EXTINCTION DEPTH FROM PREVIOUS STRESS PERIOD. CURRENT PERIOD IS:       5

 USING EXTINCTION WATER CONTENT FROM PREVIOUS STRESS PERIOD. CURRENT PERIOD IS:       5
 
 SOLVING FOR HEAD 

    11 ITERATIONS FOR TIME STEP   1 IN STRESS PERIOD    5

 MAXIMUM HEAD CHANGE FOR EACH ITERATION:

    HEAD CHANGE   HEAD CHANGE   HEAD CHANGE   HEAD CHANGE   HEAD CHANGE
  LAYER,ROW,COL LAYER,ROW,COL LAYER,ROW,COL LAYER,ROW,COL LAYER,ROW,COL
 ----------------------------------------------------------------------
    -0.1980E-01    0.7379E-02    0.4775E-02    0.3153E-02    0.2029E-02
  (  1,  6,  5) (  1,  3,  6) (  1,  3,  6) (  1,  3,  6) (  1,  3,  6)
     0.1304E-02    0.8596E-03    0.5711E-03    0.3138E-03    0.2620E-03
  (  1,  3,  6) (  1,  3,  6) (  1,  3,  6) (  1,  3,  6) (  1,  3,  6)
     0.1524E-03
  (  1,  3,  6)


 NO OUTPUT CONTROL FOR STRESS PERIOD    5   TIME STEP   1
 
 SOLVING FOR HEAD 
    11 ITERATIONS FOR TIME STEP   2 IN STRESS PERIOD    5

 MAXIMUM HEAD CHANGE FOR EACH ITERATION:

    HEAD CHANGE   HEAD CHANGE   HEAD CHANGE   HEAD CHANGE   HEAD CHANGE
  LAYER,ROW,COL LAYER,ROW,COL LAYER,ROW,COL LAYER,ROW,COL LAYER,ROW,COL
 ----------------------------------------------------------------------
    -0.2176E-01    0.7572E-02    0.4849E-02    0.3161E-02    0.2055E-02
  (  1,  6,  4) (  1,  3,  7) (  1,  3,  6) (  1,  3,  6) (  1,  3,  6)
     0.1341E-02    0.8701E-03    0.5568E-03    0.3848E-03    0.2407E-03
  (  1,  3,  6) (  1,  3,  6) (  1,  3,  6) (  1,  3,  6) (  1,  3,  6)
     0.1575E-03
  (  1,  3,  6)


 NO OUTPUT CONTROL FOR STRESS PERIOD    5   TIME STEP   2
 
 SOLVING FOR HEAD 
    11 ITERATIONS FOR TIME STEP   3 IN STRESS PERIOD    5

 MAXIMUM HEAD CHANGE FOR EACH ITERATION:

    HEAD CHANGE   HEAD CHANGE   HEAD CHANGE   HEAD CHANGE   HEAD CHANGE
  LAYER,ROW,COL LAYER,ROW,COL LAYER,ROW,COL LAYER,ROW,COL LAYER,ROW,COL
 ----------------------------------------------------------------------
    -0.2330E-01    0.7867E-02    0.4972E-02    0.3216E-02    0.2083E-02
  (  1,  6,  4) (  1,  3,  7) (  1,  3,  6) (  1,  3,  6) (  1,  3,  6)
     0.1376E-02    0.8746E-03    0.5941E-03    0.3586E-03    0.2514E-03
  (  1,  3,  6) (  1,  3,  6) (  1,  3,  6) (  1,  3,  6) (  1,  3,  6)
     0.1702E-03
  (  1,  3,  6)


 NO OUTPUT CONTROL FOR STRESS PERIOD    5   TIME STEP   3
 
 SOLVING FOR HEAD 
    10 ITERATIONS FOR TIME STEP   4 IN STRESS PERIOD    5

 MAXIMUM HEAD CHANGE FOR EACH ITERATION:

    HEAD CHANGE   HEAD CHANGE   HEAD CHANGE   HEAD CHANGE   HEAD CHANGE
  LAYER,ROW,COL LAYER,ROW,COL LAYER,ROW,COL LAYER,ROW,COL LAYER,ROW,COL
 ----------------------------------------------------------------------
    -0.2486E-01    0.7744E-02    0.4453E-02    0.2831E-02    0.1796E-02
  (  1,  7,  4) (  1,  3,  7) (  1,  3,  7) (  1,  3,  5) (  1,  3,  5)
     0.1137E-02    0.7452E-03    0.4727E-03    0.2889E-03    0.1871E-03
  (  1,  3,  5) (  1,  3,  5) (  1,  3,  5) (  1,  3,  5) (  1,  3,  5)


 NO OUTPUT CONTROL FOR STRESS PERIOD    5   TIME STEP   4
 
 SOLVING FOR HEAD 
    11 ITERATIONS FOR TIME STEP   5 IN STRESS PERIOD    5

 MAXIMUM HEAD CHANGE FOR EACH ITERATION:

    HEAD CHANGE   HEAD CHANGE   HEAD CHANGE   HEAD CHANGE   HEAD CHANGE
  LAYER,ROW,COL LAYER,ROW,COL LAYER,ROW,COL LAYER,ROW,COL LAYER,ROW,COL
 ----------------------------------------------------------------------
    -0.3772E-01   -0.2128E-01   -0.1203E-01   -0.6710E-02   -0.3916E-02
  (  1,  3,  6) (  1,  3,  6) (  1,  3,  6) (  1,  3,  6) (  1,  3,  6)
    -0.2098E-02   -0.1255E-02   -0.6692E-03   -0.4121E-03   -0.2929E-03
  (  1,  3,  6) (  1,  3,  6) (  1,  3,  6) (  1,  3,  6) (  1,  3,  6)
    -0.1265E-03
  (  1,  3,  6)


 OUTPUT CONTROL FOR STRESS PERIOD    5   TIME STEP   5
    PRINT BUDGET
    SAVE BUDGET

            WELLS   PERIOD    5   STEP   5
 WELL      1   LAYER   1   ROW     6   COL     4   RATE    -3.00000    
 WELL      2   LAYER   1   ROW     6   COL     5   RATE    -3.00000    
 WELL      3   LAYER   1   ROW     7   COL     4   RATE    -3.00000    
 WELL      4   LAYER   1   ROW     7   COL     5   RATE    -3.00000    
 WELL      5   LAYER   1   ROW     8   COL     4   RATE    -3.00000    
 WELL      6   LAYER   1   ROW     8   COL     5   RATE    -3.00000    
 WELL      7   LAYER   1   ROW     9   COL     4   RATE    -3.00000    
 WELL      8   LAYER   1   ROW     9   COL     5   RATE    -3.00000    
 WELL      9   LAYER   1   ROW    10   COL     4   RATE    -3.00000    
 WELL     10   LAYER   1   ROW    10   COL     5   RATE    -3.00000    

  HEAD DEP BOUNDS   PERIOD    5   STEP   5
 BOUNDARY      1   LAYER   1   ROW    13   COL     1   RATE   -0.265261    
 BOUNDARY      2   LAYER   1   ROW    14   COL     9   RATE    0.208349    
 UBDSV3 SAVING "           GW ET" ON UNIT  61 AT TIME STEP  5, STRESS PERIOD   5
 UBDSV3 SAVING "    UZF INFILTR." ON UNIT  61 AT TIME STEP  5, STRESS PERIOD   5
 UBDSV3 SAVING "    UZF RECHARGE" ON UNIT  61 AT TIME STEP  5, STRESS PERIOD   5
 UBDSV3 SAVING " SURFACE LEAKAGE" ON UNIT  61 AT TIME STEP  5, STRESS PERIOD   5


UNSATURATED ZONE PACKAGE VOLUMETRIC BUDGET FOR  TIME STEP    5 STRESS PERIOD    5
  ------------------------------------------------------------------------------



     CUMULATIVE VOLUMES      L**3       RATES FOR THIS TIME STEP      L**3/T
     ------------------                 ------------------------

           IN:                                      IN:
           ---                                      ---
        INFILTRATION =   890017799.5659          INFILTRATION =          42.3750

          OUT:                                     OUT:
          ----                                     ----
              UZF ET =   943268275.6265                UZF ET =          81.1204
        UZF RECHARGE =   159976244.5645          UZF RECHARGE =          16.8588

            IN - OUT =  -213226720.6252              IN - OUT =         -55.6042

          STORAGE:                                 STORAGE:
          --------                                 --------
      STORAGE CHANGE =  -213022831.4090        STORAGE CHANGE =         -55.5969

 PERCENT DISCREPANCY IS DIFFERENCE BETWEEN IN-OUT MINUS CHANGE IN STORAGE
 DIVIDED BY THE AVERAGE OF IN AND OUT TIMES 100

 PERCENT DISCREPANCY =           0.00     PERCENT DISCREPANCY =          -0.01









 STREAM LISTING     PERIOD      5   STEP        5

 LAYER ROW COL. STREAM  RCH.  FLOW INTO     FLOW TO   FLOW OUT OF   OVRLND.     DIRECT     STREAM       STREAM     STREAM     STREAM   STREAMBED  STREAMBED
                SEG.NO.  NO.  STRM. RCH.    AQUIFER    STRM. RCH.    RUNOFF     PRECIP       ET          HEAD       DEPTH      WIDTH   CONDCTNC.   GRADIENT

   1    1    1     1     1    2.5000E+01  9.8662E-01   2.4013E+01  0.000E+00  0.000E+00  0.000E+00  1.09422E+03  1.173E+00  1.296E+01  5.834E-01  5.637E-01
   1    2    2     1     2    2.4013E+01  3.0029E+00   2.1011E+01  0.000E+00  0.000E+00  0.000E+00  1.08920E+03  1.142E+00  1.255E+01  8.786E-01  1.139E+00
   1    3    3     1     3    2.1011E+01  2.9139E+00   1.8097E+01  0.000E+00  0.000E+00  0.000E+00  1.08351E+03  1.093E+00  1.187E+01  7.120E-01  1.364E+00
   1    3    4     1     4    1.8097E+01  2.4756E+00   1.5621E+01  0.000E+00  0.000E+00  0.000E+00  1.07845E+03  1.047E+00  1.102E+01  6.117E-01  1.349E+00
   1    4    5     2     1    5.6210E+00  2.6670E+00   2.9540E+00  0.000E+00  0.000E+00  0.000E+00  1.07235E+03  4.192E-01  1.200E+01  7.800E-01  1.140E+00
   1    5    6     2     2    2.9540E+00  1.9580E+00   9.9597E-01  0.000E+00  0.000E+00  0.000E+00  1.06677E+03  2.633E-01  1.200E+01  6.000E-01  1.088E+00
   1    6    6     2     3    9.9597E-01  9.9597E-01   0.0000E+00  0.000E+00  0.000E+00  0.000E+00  1.06183E+03  3.929E-02  1.200E+01  6.000E-01  1.013E+00
   1    7    6     2     4    0.0000E+00  0.0000E+00   0.0000E+00  0.000E+00  0.000E+00  0.000E+00  1.05708E+03  0.000E+00  1.200E+01  6.000E-01  1.000E+00
   1    8    6     2     5    0.0000E+00  0.0000E+00   0.0000E+00  0.000E+00  0.000E+00  0.000E+00  1.05236E+03  0.000E+00  1.200E+01  6.000E-01  1.000E+00
   1    3    5     3     1    1.0000E+01  1.4050E+00   8.5950E+00  0.000E+00  0.000E+00  0.000E+00  1.07555E+03  1.909E+00  9.636E+00  7.227E-01  9.720E-01
   1    3    6     3     2    8.5950E+00  1.2442E-01   8.4706E+00  0.000E+00  0.000E+00  0.000E+00  1.07264E+03  1.727E+00  8.909E+00  6.682E-01  9.310E-02
   1    3    7     3     3    8.4706E+00 -1.3082E-01   8.6014E+00  0.000E+00  0.000E+00  0.000E+00  1.06987E+03  1.555E+00  8.218E+00  5.547E-01 -1.179E-01
   1    4    8     3     4    8.6014E+00  1.5778E+00   7.0236E+00  0.000E+00  0.000E+00  0.000E+00  1.06682E+03  1.364E+00  7.455E+00  6.709E-01  1.176E+00
   1    5    8     3     5    7.0236E+00  1.5790E+00   5.4446E+00  0.000E+00  0.000E+00  0.000E+00  1.06362E+03  1.164E+00  6.655E+00  4.991E-01  1.582E+00
   1    6    8     3     6    5.4446E+00  5.5980E-01   4.8848E+00  0.000E+00  0.000E+00  0.000E+00  1.06158E+03  1.036E+00  6.145E+00  1.844E-01  1.518E+00
   1    5   10     4     1    1.0000E+01  9.0525E-01   9.0947E+00  0.000E+00  0.000E+00  0.000E+00  1.07835E+03  6.210E-01  1.000E+01  2.500E-01  1.207E+00
   1    5    9     4     2    9.0947E+00  1.7835E+00   7.3113E+00  0.000E+00  0.000E+00  0.000E+00  1.07148E+03  5.670E-01  1.000E+01  5.000E-01  1.189E+00
   1    6    8     4     3    7.3113E+00  1.2257E+00   6.0855E+00  0.000E+00  0.000E+00  0.000E+00  1.06368E+03  5.021E-01  1.000E+01  3.500E-01  1.167E+00
   1    6    8     5     1    1.0970E+01  1.3289E+00   9.6415E+00  0.000E+00  0.000E+00  0.000E+00  1.05868E+03  6.787E-01  1.540E+01  6.162E-01  7.189E-01
   1    7    7     5     2    9.6415E+00  2.4751E+00   7.1664E+00  0.000E+00  0.000E+00  0.000E+00  1.05413E+03  6.320E-01  1.363E+01  6.815E-01  1.211E+00
   1    8    7     5     3    7.1664E+00  1.4539E+00   5.7125E+00  0.000E+00  0.000E+00  0.000E+00  1.04983E+03  5.757E-01  1.162E+01  4.066E-01  1.192E+00
   1    8    6     5     4    5.7125E+00  9.0942E-01   4.8031E+00  0.000E+00  0.000E+00  0.000E+00  1.04679E+03  5.363E-01  1.029E+01  2.572E-01  1.179E+00
   1    9    6     6     1    4.8031E+00  2.0360E+00   2.7671E+00  0.000E+00  0.000E+00  0.000E+00  1.04312E+03  3.934E-01  1.200E+01  6.000E-01  1.131E+00
   1   10    7     6     2    2.7671E+00  1.9507E+00   8.1639E-01  0.000E+00  0.000E+00  0.000E+00  1.03843E+03  2.512E-01  1.200E+01  6.000E-01  1.084E+00
   1   11    7     6     3    8.1639E-01  8.1639E-01   0.0000E+00  0.000E+00  0.000E+00  0.000E+00  1.03367E+03  3.526E-02  1.200E+01  6.000E-01  1.012E+00
   1   12    7     6     4    0.0000E+00  0.0000E+00   0.0000E+00  0.000E+00  0.000E+00  0.000E+00  1.02909E+03  0.000E+00  1.200E+01  6.000E-01  3.121E-01
   1   13    7     6     5    0.0000E+00 -8.2400E-01   8.2400E-01  0.000E+00  0.000E+00  0.000E+00  1.02591E+03  0.000E+00  1.200E+01  2.400E-01 -1.144E+00
   1   14    9     7     1    1.5000E+02  1.9552E+00   1.4804E+02  0.000E+00  0.000E+00  0.000E+00  1.03987E+03  2.286E+00  5.529E+01  5.592E+00  1.165E-01
   1   13    8     7     2    1.4804E+02  2.9330E+00   1.4511E+02  0.000E+00  0.000E+00  0.000E+00  1.03477E+03  2.273E+00  5.523E+01  6.144E+00  1.591E-01
   1   13    7     7     3    1.4511E+02  1.8806E+00   1.4323E+02  0.000E+00  0.000E+00  0.000E+00  1.02968E+03  2.260E+00  5.517E+01  5.579E+00  1.124E-01
   1   13    6     8     1    1.4406E+02  1.9773E-01   1.4386E+02  0.000E+00  0.000E+00  0.000E+00  1.02465E+03  2.774E+00  4.022E+01  4.098E+00  1.608E-02
   1   13    5     8     2    1.4386E+02 -2.5441E+00   1.4640E+02  0.000E+00  0.000E+00  0.000E+00  1.01841E+03  2.782E+00  4.034E+01  4.111E+00 -2.063E-01
   1   13    4     8     3    1.4640E+02 -4.2123E+00   1.5061E+02  0.000E+00  0.000E+00  0.000E+00  1.01218E+03  2.806E+00  4.069E+01  4.147E+00 -3.386E-01
   1   13    3     8     4    1.5061E+02 -4.5593E+00   1.5517E+02  0.000E+00  0.000E+00  0.000E+00  1.00596E+03  2.837E+00  4.114E+01  4.192E+00 -3.625E-01
   1   13    2     8     5    1.5517E+02 -2.1270E+00   1.5730E+02  0.000E+00  0.000E+00  0.000E+00  9.99735E+02  2.860E+00  4.147E+01  4.226E+00 -1.678E-01
   1   13    1     8     6    1.5730E+02 -6.0045E-01   1.5790E+02  0.000E+00  0.000E+00  0.000E+00  9.94745E+02  2.870E+00  4.161E+01  2.544E+00 -7.867E-02



1
  VOLUMETRIC BUDGET FOR ENTIRE MODEL AT END OF TIME STEP  5 IN STRESS PERIOD   5
  ------------------------------------------------------------------------------

     CUMULATIVE VOLUMES      L**3       RATES FOR THIS TIME STEP      L**3/T
     ------------------                 ------------------------

           IN:                                      IN:
           ---                                      ---
             STORAGE =     8454228.0000               STORAGE =          17.3874
       CONSTANT HEAD =           0.0000         CONSTANT HEAD =           0.0000
               WELLS =           0.0000                 WELLS =           0.0000
     HEAD DEP BOUNDS =     2300651.7500       HEAD DEP BOUNDS =           0.2083
        UZF RECHARGE =   159976240.0000          UZF RECHARGE =          16.8588
               GW ET =           0.0000                 GW ET =           0.0000
     SURFACE LEAKAGE =           0.0000       SURFACE LEAKAGE =           0.0000
      STREAM LEAKAGE =   478459808.0000        STREAM LEAKAGE =          42.0973

            TOTAL IN =   649190912.0000              TOTAL IN =          76.5518

          OUT:                                     OUT:
          ----                                     ----
             STORAGE =   151834528.0000               STORAGE =          13.9862
       CONSTANT HEAD =           0.0000         CONSTANT HEAD =           0.0000
               WELLS =   172829120.0000                 WELLS =          30.0000
     HEAD DEP BOUNDS =     2891230.7500       HEAD DEP BOUNDS =           0.2653
        UZF RECHARGE =           0.0000          UZF RECHARGE =           0.0000
               GW ET =   174670944.0000                 GW ET =          17.2514
     SURFACE LEAKAGE =           0.0000       SURFACE LEAKAGE =           0.0000
      STREAM LEAKAGE =   146613744.0000        STREAM LEAKAGE =          14.9980

           TOTAL OUT =   648839552.0000             TOTAL OUT =          76.5009

            IN - OUT =      351360.0000              IN - OUT =       5.0934E-02

 PERCENT DISCREPANCY =           0.05     PERCENT DISCREPANCY =           0.07






          TIME SUMMARY AT END OF TIME STEP   5 IN STRESS PERIOD    5
                    SECONDS     MINUTES      HOURS       DAYS        YEARS
                    -----------------------------------------------------------
   TIME STEP LENGTH 1.21100E+05  2018.3      33.639      1.4016     3.83743E-03
 STRESS PERIOD TIME 5.04972E+05  8416.2      140.27      5.8446     1.60016E-02
         TOTAL TIME 1.10170E+07 1.83616E+05  3060.3      127.51     0.34911    
1
 
 SOLVING FOR HEAD 
    11 ITERATIONS FOR TIME STEP   6 IN STRESS PERIOD    5

 MAXIMUM HEAD CHANGE FOR EACH ITERATION:

    HEAD CHANGE   HEAD CHANGE   HEAD CHANGE   HEAD CHANGE   HEAD CHANGE
  LAYER,ROW,COL LAYER,ROW,COL LAYER,ROW,COL LAYER,ROW,COL LAYER,ROW,COL
 ----------------------------------------------------------------------
    -0.6357E-01   -0.3406E-01   -0.1821E-01   -0.9725E-02   -0.5296E-02
  (  1,  3,  6) (  1,  3,  6) (  1,  3,  6) (  1,  3,  6) (  1,  3,  6)
    -0.2806E-02   -0.1474E-02   -0.9082E-03   -0.4453E-03   -0.3182E-03
  (  1,  3,  6) (  1,  3,  6) (  1,  3,  6) (  1,  3,  5) (  1,  3,  5)
    -0.1371E-03
  (  1,  3,  5)


 NO OUTPUT CONTROL FOR STRESS PERIOD    5   TIME STEP   6
 
 SOLVING FOR HEAD 
    10 ITERATIONS FOR TIME STEP   7 IN STRESS PERIOD    5

 MAXIMUM HEAD CHANGE FOR EACH ITERATION:

    HEAD CHANGE   HEAD CHANGE   HEAD CHANGE   HEAD CHANGE   HEAD CHANGE
  LAYER,ROW,COL LAYER,ROW,COL LAYER,ROW,COL LAYER,ROW,COL LAYER,ROW,COL
 ----------------------------------------------------------------------
    -0.7987E-01   -0.4081E-01   -0.2093E-01   -0.1082E-01   -0.5390E-02
  (  1,  3,  6) (  1,  3,  6) (  1,  3,  6) (  1,  3,  6) (  1,  3,  6)
    -0.2879E-02   -0.1473E-02   -0.7920E-03   -0.4948E-03   -0.1740E-03
  (  1,  3,  5) (  1,  3,  5) (  1,  3,  6) (  1,  3,  6) (  1,  3,  5)


 NO OUTPUT CONTROL FOR STRESS PERIOD    5   TIME STEP   7
 
 SOLVING FOR HEAD 
    10 ITERATIONS FOR TIME STEP   8 IN STRESS PERIOD    5

 MAXIMUM HEAD CHANGE FOR EACH ITERATION:

    HEAD CHANGE   HEAD CHANGE   HEAD CHANGE   HEAD CHANGE   HEAD CHANGE
  LAYER,ROW,COL LAYER,ROW,COL LAYER,ROW,COL LAYER,ROW,COL LAYER,ROW,COL
 ----------------------------------------------------------------------
    -0.9124E-01   -0.4444E-01   -0.2159E-01   -0.1079E-01   -0.5542E-02
  (  1,  3,  6) (  1,  3,  6) (  1,  3,  6) (  1,  3,  5) (  1,  3,  5)
    -0.2793E-02   -0.1347E-02   -0.8088E-03   -0.3326E-03   -0.1543E-03
  (  1,  3,  5) (  1,  3,  5) (  1,  3,  5) (  1,  3,  5) (  1,  3,  5)


 NO OUTPUT CONTROL FOR STRESS PERIOD    5   TIME STEP   8
 
 SOLVING FOR HEAD 
    10 ITERATIONS FOR TIME STEP   9 IN STRESS PERIOD    5

 MAXIMUM HEAD CHANGE FOR EACH ITERATION:

    HEAD CHANGE   HEAD CHANGE   HEAD CHANGE   HEAD CHANGE   HEAD CHANGE
  LAYER,ROW,COL LAYER,ROW,COL LAYER,ROW,COL LAYER,ROW,COL LAYER,ROW,COL
 ----------------------------------------------------------------------
    -0.1018       -0.4774E-01   -0.2243E-01   -0.1054E-01   -0.5249E-02
  (  1,  3,  6) (  1,  3,  6) (  1,  3,  6) (  1,  3,  5) (  1,  3,  5)
    -0.2520E-02   -0.1290E-02   -0.6000E-03   -0.3161E-03   -0.1613E-03
  (  1,  3,  5) (  1,  3,  5) (  1,  3,  5) (  1,  3,  5) (  1,  3,  5)


 NO OUTPUT CONTROL FOR STRESS PERIOD    5   TIME STEP   9
 
 SOLVING FOR HEAD 
    10 ITERATIONS FOR TIME STEP  10 IN STRESS PERIOD    5

 MAXIMUM HEAD CHANGE FOR EACH ITERATION:

    HEAD CHANGE   HEAD CHANGE   HEAD CHANGE   HEAD CHANGE   HEAD CHANGE
  LAYER,ROW,COL LAYER,ROW,COL LAYER,ROW,COL LAYER,ROW,COL LAYER,ROW,COL
 ----------------------------------------------------------------------
    -0.1112       -0.5159E-01   -0.2127E-01   -0.9953E-02   -0.4652E-02
  (  1,  3,  6) (  1,  3,  6) (  1,  3,  5) (  1,  3,  5) (  1,  3,  5)
    -0.2212E-02   -0.9161E-03   -0.5065E-03   -0.2056E-03   -0.9592E-04
  (  1,  3,  5) (  1,  3,  5) (  1,  3,  5) (  1,  3,  5) (  1,  3,  5)


 OUTPUT CONTROL FOR STRESS PERIOD    5   TIME STEP  10
    PRINT BUDGET
    SAVE BUDGET

            WELLS   PERIOD    5   STEP  10
 WELL      1   LAYER   1   ROW     6   COL     4   RATE    -3.00000    
 WELL      2   LAYER   1   ROW     6   COL     5   RATE    -3.00000    
 WELL      3   LAYER   1   ROW     7   COL     4   RATE    -3.00000    
 WELL      4   LAYER   1   ROW     7   COL     5   RATE    -3.00000    
 WELL      5   LAYER   1   ROW     8   COL     4   RATE    -3.00000    
 WELL      6   LAYER   1   ROW     8   COL     5   RATE    -3.00000    
 WELL      7   LAYER   1   ROW     9   COL     4   RATE    -3.00000    
 WELL      8   LAYER   1   ROW     9   COL     5   RATE    -3.00000    
 WELL      9   LAYER   1   ROW    10   COL     4   RATE    -3.00000    
 WELL     10   LAYER   1   ROW    10   COL     5   RATE    -3.00000    

  HEAD DEP BOUNDS   PERIOD    5   STEP  10
 BOUNDARY      1   LAYER   1   ROW    13   COL     1   RATE   -0.266687    
 BOUNDARY      2   LAYER   1   ROW    14   COL     9   RATE    0.208809    
 UBDSV3 SAVING "           GW ET" ON UNIT  61 AT TIME STEP 10, STRESS PERIOD   5
 UBDSV3 SAVING "    UZF INFILTR." ON UNIT  61 AT TIME STEP 10, STRESS PERIOD   5
 UBDSV3 SAVING "    UZF RECHARGE" ON UNIT  61 AT TIME STEP 10, STRESS PERIOD   5
 UBDSV3 SAVING " SURFACE LEAKAGE" ON UNIT  61 AT TIME STEP 10, STRESS PERIOD   5


UNSATURATED ZONE PACKAGE VOLUMETRIC BUDGET FOR  TIME STEP   10 STRESS PERIOD    5
  ------------------------------------------------------------------------------



     CUMULATIVE VOLUMES      L**3       RATES FOR THIS TIME STEP      L**3/T
     ------------------                 ------------------------

           IN:                                      IN:
           ---                                      ---
        INFILTRATION =   924479769.5580          INFILTRATION =          42.3750

          OUT:                                     OUT:
          ----                                     ----
              UZF ET =   997061102.7991                UZF ET =          67.5644
        UZF RECHARGE =   168523792.4180          UZF RECHARGE =           9.4580

            IN - OUT =  -241105125.6591              IN - OUT =         -34.6474

          STORAGE:                                 STORAGE:
          --------                                 --------
      STORAGE CHANGE =  -240900388.3278        STORAGE CHANGE =         -34.6463

 PERCENT DISCREPANCY IS DIFFERENCE BETWEEN IN-OUT MINUS CHANGE IN STORAGE
 DIVIDED BY THE AVERAGE OF IN AND OUT TIMES 100

 PERCENT DISCREPANCY =           0.00     PERCENT DISCREPANCY =           0.00









 STREAM LISTING     PERIOD      5   STEP       10

 LAYER ROW COL. STREAM  RCH.  FLOW INTO     FLOW TO   FLOW OUT OF   OVRLND.     DIRECT     STREAM       STREAM     STREAM     STREAM   STREAMBED  STREAMBED
                SEG.NO.  NO.  STRM. RCH.    AQUIFER    STRM. RCH.    RUNOFF     PRECIP       ET          HEAD       DEPTH      WIDTH   CONDCTNC.   GRADIENT

   1    1    1     1     1    2.5000E+01  9.9795E-01   2.4002E+01  0.000E+00  0.000E+00  0.000E+00  1.09422E+03  1.173E+00  1.296E+01  5.833E-01  5.703E-01
   1    2    2     1     2    2.4002E+01  3.0242E+00   2.0978E+01  0.000E+00  0.000E+00  0.000E+00  1.08920E+03  1.141E+00  1.255E+01  8.783E-01  1.148E+00
   1    3    3     1     3    2.0978E+01  2.9112E+00   1.8067E+01  0.000E+00  0.000E+00  0.000E+00  1.08351E+03  1.092E+00  1.186E+01  7.114E-01  1.364E+00
   1    3    4     1     4    1.8067E+01  2.4732E+00   1.5593E+01  0.000E+00  0.000E+00  0.000E+00  1.07845E+03  1.046E+00  1.101E+01  6.112E-01  1.349E+00
   1    4    5     2     1    5.5934E+00  2.6658E+00   2.9277E+00  0.000E+00  0.000E+00  0.000E+00  1.07235E+03  4.177E-01  1.200E+01  7.800E-01  1.139E+00
   1    5    6     2     2    2.9277E+00  1.9568E+00   9.7090E-01  0.000E+00  0.000E+00  0.000E+00  1.06677E+03  2.613E-01  1.200E+01  6.000E-01  1.087E+00
   1    6    6     2     3    9.7090E-01  9.7090E-01   0.0000E+00  0.000E+00  0.000E+00  0.000E+00  1.06181E+03  1.935E-02  1.200E+01  6.000E-01  1.006E+00
   1    7    6     2     4    0.0000E+00  0.0000E+00   0.0000E+00  0.000E+00  0.000E+00  0.000E+00  1.05708E+03  0.000E+00  1.200E+01  6.000E-01  1.000E+00
   1    8    6     2     5    0.0000E+00  0.0000E+00   0.0000E+00  0.000E+00  0.000E+00  0.000E+00  1.05236E+03  0.000E+00  1.200E+01  6.000E-01  1.000E+00
   1    3    5     3     1    1.0000E+01  1.9494E+00   8.0506E+00  0.000E+00  0.000E+00  0.000E+00  1.07555E+03  1.909E+00  9.636E+00  7.227E-01  1.349E+00
   1    3    6     3     2    8.0506E+00  6.8170E-01   7.3689E+00  0.000E+00  0.000E+00  0.000E+00  1.07264E+03  1.727E+00  8.909E+00  6.682E-01  5.101E-01
   1    3    7     3     3    7.3689E+00  1.3062E-01   7.2383E+00  0.000E+00  0.000E+00  0.000E+00  1.06987E+03  1.555E+00  8.218E+00  5.547E-01  1.177E-01
   1    4    8     3     4    7.2383E+00  1.5665E+00   5.6718E+00  0.000E+00  0.000E+00  0.000E+00  1.06682E+03  1.364E+00  7.455E+00  6.709E-01  1.167E+00
   1    5    8     3     5    5.6718E+00  1.5790E+00   4.0928E+00  0.000E+00  0.000E+00  0.000E+00  1.06362E+03  1.164E+00  6.655E+00  4.991E-01  1.582E+00
   1    6    8     3     6    4.0928E+00  5.5980E-01   3.5330E+00  0.000E+00  0.000E+00  0.000E+00  1.06158E+03  1.036E+00  6.145E+00  1.844E-01  1.518E+00
   1    5   10     4     1    1.0000E+01  9.0525E-01   9.0947E+00  0.000E+00  0.000E+00  0.000E+00  1.07835E+03  6.210E-01  1.000E+01  2.500E-01  1.207E+00
   1    5    9     4     2    9.0947E+00  1.7835E+00   7.3113E+00  0.000E+00  0.000E+00  0.000E+00  1.07148E+03  5.670E-01  1.000E+01  5.000E-01  1.189E+00
   1    6    8     4     3    7.3113E+00  1.2257E+00   6.0855E+00  0.000E+00  0.000E+00  0.000E+00  1.06368E+03  5.021E-01  1.000E+01  3.500E-01  1.167E+00
   1    6    8     5     1    9.6186E+00  1.2048E+00   8.4137E+00  0.000E+00  0.000E+00  0.000E+00  1.05865E+03  6.477E-01  1.422E+01  5.687E-01  7.062E-01
   1    7    7     5     2    8.4137E+00  2.2529E+00   6.1608E+00  0.000E+00  0.000E+00  0.000E+00  1.05410E+03  6.012E-01  1.251E+01  6.256E-01  1.200E+00
   1    8    7     5     3    6.1608E+00  1.3120E+00   4.8489E+00  0.000E+00  0.000E+00  0.000E+00  1.04980E+03  5.450E-01  1.057E+01  3.701E-01  1.182E+00
   1    8    6     5     4    4.8489E+00  8.1471E-01   4.0341E+00  0.000E+00  0.000E+00  0.000E+00  1.04676E+03  5.055E-01  9.296E+00  2.324E-01  1.169E+00
   1    9    6     6     1    4.0341E+00  2.0066E+00   2.0276E+00  0.000E+00  0.000E+00  0.000E+00  1.04307E+03  3.443E-01  1.200E+01  6.000E-01  1.115E+00
   1   10    7     6     2    2.0276E+00  1.9107E+00   1.1683E-01  0.000E+00  0.000E+00  0.000E+00  1.03837E+03  1.846E-01  1.200E+01  6.000E-01  1.062E+00
   1   11    7     6     3    1.1683E-01  1.1683E-01   0.0000E+00  0.000E+00  0.000E+00  0.000E+00  1.03365E+03  1.099E-02  1.200E+01  6.000E-01  1.004E+00
   1   12    7     6     4    0.0000E+00  0.0000E+00   0.0000E+00  0.000E+00  0.000E+00  0.000E+00  1.02909E+03  0.000E+00  1.200E+01  6.000E-01  3.043E-01
   1   13    7     6     5    0.0000E+00 -8.2579E-01   8.2579E-01  0.000E+00  0.000E+00  0.000E+00  1.02591E+03  0.000E+00  1.200E+01  2.400E-01 -1.147E+00
   1   14    9     7     1    1.5000E+02  2.0219E+00   1.4798E+02  0.000E+00  0.000E+00  0.000E+00  1.03987E+03  2.286E+00  5.529E+01  5.592E+00  1.205E-01
   1   13    8     7     2    1.4798E+02  2.9697E+00   1.4501E+02  0.000E+00  0.000E+00  0.000E+00  1.03477E+03  2.273E+00  5.523E+01  6.144E+00  1.611E-01
   1   13    7     7     3    1.4501E+02  1.8366E+00   1.4317E+02  0.000E+00  0.000E+00  0.000E+00  1.02968E+03  2.260E+00  5.517E+01  5.579E+00  1.097E-01
   1   13    6     8     1    1.4400E+02  1.9139E-01   1.4381E+02  0.000E+00  0.000E+00  0.000E+00  1.02465E+03  2.773E+00  4.021E+01  4.098E+00  1.557E-02
   1   13    5     8     2    1.4381E+02 -2.2684E+00   1.4607E+02  0.000E+00  0.000E+00  0.000E+00  1.01841E+03  2.781E+00  4.032E+01  4.109E+00 -1.840E-01
   1   13    4     8     3    1.4607E+02 -3.9605E+00   1.5004E+02  0.000E+00  0.000E+00  0.000E+00  1.01218E+03  2.803E+00  4.064E+01  4.142E+00 -3.187E-01
   1   13    3     8     4    1.5004E+02 -4.2639E+00   1.5430E+02  0.000E+00  0.000E+00  0.000E+00  1.00596E+03  2.832E+00  4.106E+01  4.185E+00 -3.396E-01
   1   13    2     8     5    1.5430E+02 -2.1032E+00   1.5640E+02  0.000E+00  0.000E+00  0.000E+00  9.99729E+02  2.854E+00  4.138E+01  4.217E+00 -1.662E-01
   1   13    1     8     6    1.5640E+02 -7.0915E-01   1.5711E+02  0.000E+00  0.000E+00  0.000E+00  9.94739E+02  2.864E+00  4.152E+01  2.539E+00 -9.310E-02



1
  VOLUMETRIC BUDGET FOR ENTIRE MODEL AT END OF TIME STEP 10 IN STRESS PERIOD   5
  ------------------------------------------------------------------------------

     CUMULATIVE VOLUMES      L**3       RATES FOR THIS TIME STEP      L**3/T
     ------------------                 ------------------------

           IN:                                      IN:
           ---                                      ---
             STORAGE =    25066034.0000               STORAGE =          19.1423
       CONSTANT HEAD =           0.0000         CONSTANT HEAD =           0.0000
               WELLS =           0.0000                 WELLS =           0.0000
     HEAD DEP BOUNDS =     2470345.7500       HEAD DEP BOUNDS =           0.2088
        UZF RECHARGE =   168523792.0000          UZF RECHARGE =           9.4580
               GW ET =           0.0000                 GW ET =           0.0000
     SURFACE LEAKAGE =           0.0000       SURFACE LEAKAGE =           0.0000
      STREAM LEAKAGE =   512629952.0000        STREAM LEAKAGE =          42.0196

            TOTAL IN =   708690112.0000              TOTAL IN =          70.8287

          OUT:                                     OUT:
          ----                                     ----
             STORAGE =   159437184.0000               STORAGE =           7.4017
       CONSTANT HEAD =           0.0000         CONSTANT HEAD =           0.0000
               WELLS =   197226976.0000                 WELLS =          30.0000
     HEAD DEP BOUNDS =     3107724.2500       HEAD DEP BOUNDS =           0.2667
        UZF RECHARGE =           0.0000          UZF RECHARGE =           0.0000
               GW ET =   190238864.0000                 GW ET =          18.9823
     SURFACE LEAKAGE =           0.0000       SURFACE LEAKAGE =           0.0000
      STREAM LEAKAGE =   158325392.0000        STREAM LEAKAGE =          14.1309

           TOTAL OUT =   708336128.0000             TOTAL OUT =          70.7816

            IN - OUT =      353984.0000              IN - OUT =       4.7104E-02

 PERCENT DISCREPANCY =           0.05     PERCENT DISCREPANCY =           0.07






          TIME SUMMARY AT END OF TIME STEP  10 IN STRESS PERIOD    5
                    SECONDS     MINUTES      HOURS       DAYS        YEARS
                    -----------------------------------------------------------
   TIME STEP LENGTH 1.95033E+05  3250.6      54.176      2.2573     6.18023E-03
 STRESS PERIOD TIME 1.31823E+06  21971.      366.18      15.257     4.17723E-02
         TOTAL TIME 1.18302E+07 1.97171E+05  3286.2      136.92     0.37488    
1
 
 SOLVING FOR HEAD 
     7 ITERATIONS FOR TIME STEP  11 IN STRESS PERIOD    5

 MAXIMUM HEAD CHANGE FOR EACH ITERATION:

    HEAD CHANGE   HEAD CHANGE   HEAD CHANGE   HEAD CHANGE   HEAD CHANGE
  LAYER,ROW,COL LAYER,ROW,COL LAYER,ROW,COL LAYER,ROW,COL LAYER,ROW,COL
 ----------------------------------------------------------------------
    -0.1167       -0.5116E-01   -0.2029E-01   -0.9081E-02   -0.3954E-02
  (  1,  3,  6) (  1,  3,  6) (  1,  3,  5) (  1,  3,  5) (  1,  3,  5)
    -0.7916E-03   -0.1579E-03
  (  1,  3,  5) (  1,  3,  5)


 NO OUTPUT CONTROL FOR STRESS PERIOD    5   TIME STEP  11
 
 SOLVING FOR HEAD 
     7 ITERATIONS FOR TIME STEP  12 IN STRESS PERIOD    5

 MAXIMUM HEAD CHANGE FOR EACH ITERATION:

    HEAD CHANGE   HEAD CHANGE   HEAD CHANGE   HEAD CHANGE   HEAD CHANGE
  LAYER,ROW,COL LAYER,ROW,COL LAYER,ROW,COL LAYER,ROW,COL LAYER,ROW,COL
 ----------------------------------------------------------------------
    -0.1173       -0.4968E-01   -0.1978E-01   -0.7403E-02   -0.1480E-02
  (  1,  3,  6) (  1,  3,  6) (  1,  3,  5) (  1,  3,  5) (  1,  3,  5)
    -0.2963E-03    0.7019E-04
  (  1,  3,  5) (  1,  8,  3)


 NO OUTPUT CONTROL FOR STRESS PERIOD    5   TIME STEP  12
 
 SOLVING FOR HEAD 
     7 ITERATIONS FOR TIME STEP  13 IN STRESS PERIOD    5

 MAXIMUM HEAD CHANGE FOR EACH ITERATION:

    HEAD CHANGE   HEAD CHANGE   HEAD CHANGE   HEAD CHANGE   HEAD CHANGE
  LAYER,ROW,COL LAYER,ROW,COL LAYER,ROW,COL LAYER,ROW,COL LAYER,ROW,COL
 ----------------------------------------------------------------------
    -0.1131       -0.5088E-01   -0.1851E-01   -0.8033E-02   -0.2570E-02
  (  1,  3,  6) (  1,  3,  6) (  1,  3,  5) (  1,  3,  5) (  1,  3,  5)
    -0.5150E-03   -0.1027E-03
  (  1,  3,  5) (  1,  3,  5)


 NO OUTPUT CONTROL FOR STRESS PERIOD    5   TIME STEP  13
 
 SOLVING FOR HEAD 
     9 ITERATIONS FOR TIME STEP  14 IN STRESS PERIOD    5

 MAXIMUM HEAD CHANGE FOR EACH ITERATION:

    HEAD CHANGE   HEAD CHANGE   HEAD CHANGE   HEAD CHANGE   HEAD CHANGE
  LAYER,ROW,COL LAYER,ROW,COL LAYER,ROW,COL LAYER,ROW,COL LAYER,ROW,COL
 ----------------------------------------------------------------------
    -0.1030       -0.4610E-01   -0.1834E-01   -0.6962E-02   -0.3029E-02
  (  1,  3,  6) (  1,  3,  6) (  1,  3,  6) (  1,  3,  5) (  1,  3,  5)
    -0.1276E-02   -0.5537E-03   -0.2569E-03    0.8558E-04
  (  1,  3,  5) (  1,  3,  5) (  1,  3,  5) (  1,  6,  8)


 NO OUTPUT CONTROL FOR STRESS PERIOD    5   TIME STEP  14
 
 SOLVING FOR HEAD 
     9 ITERATIONS FOR TIME STEP  15 IN STRESS PERIOD    5

 MAXIMUM HEAD CHANGE FOR EACH ITERATION:

    HEAD CHANGE   HEAD CHANGE   HEAD CHANGE   HEAD CHANGE   HEAD CHANGE
  LAYER,ROW,COL LAYER,ROW,COL LAYER,ROW,COL LAYER,ROW,COL LAYER,ROW,COL
 ----------------------------------------------------------------------
    -0.8657E-01   -0.3853E-01   -0.1703E-01   -0.7497E-02   -0.3336E-02
  (  1,  3,  6) (  1,  3,  6) (  1,  3,  6) (  1,  3,  6) (  1,  3,  6)
    -0.1506E-02   -0.6336E-03   -0.2932E-03   -0.1418E-03
  (  1,  3,  6) (  1,  3,  6) (  1,  3,  6) (  1,  3,  6)


 OUTPUT CONTROL FOR STRESS PERIOD    5   TIME STEP  15
    PRINT BUDGET
    SAVE BUDGET

            WELLS   PERIOD    5   STEP  15
 WELL      1   LAYER   1   ROW     6   COL     4   RATE    -3.00000    
 WELL      2   LAYER   1   ROW     6   COL     5   RATE    -3.00000    
 WELL      3   LAYER   1   ROW     7   COL     4   RATE    -3.00000    
 WELL      4   LAYER   1   ROW     7   COL     5   RATE    -3.00000    
 WELL      5   LAYER   1   ROW     8   COL     4   RATE    -3.00000    
 WELL      6   LAYER   1   ROW     8   COL     5   RATE    -3.00000    
 WELL      7   LAYER   1   ROW     9   COL     4   RATE    -3.00000    
 WELL      8   LAYER   1   ROW     9   COL     5   RATE    -3.00000    
 WELL      9   LAYER   1   ROW    10   COL     4   RATE    -3.00000    
 WELL     10   LAYER   1   ROW    10   COL     5   RATE    -3.00000    

  HEAD DEP BOUNDS   PERIOD    5   STEP  15
 BOUNDARY      1   LAYER   1   ROW    13   COL     1   RATE   -0.266442    
 BOUNDARY      2   LAYER   1   ROW    14   COL     9   RATE    0.209008    
 UBDSV3 SAVING "           GW ET" ON UNIT  61 AT TIME STEP 15, STRESS PERIOD   5
 UBDSV3 SAVING "    UZF INFILTR." ON UNIT  61 AT TIME STEP 15, STRESS PERIOD   5
 UBDSV3 SAVING "    UZF RECHARGE" ON UNIT  61 AT TIME STEP 15, STRESS PERIOD   5
 UBDSV3 SAVING " SURFACE LEAKAGE" ON UNIT  61 AT TIME STEP 15, STRESS PERIOD   5


UNSATURATED ZONE PACKAGE VOLUMETRIC BUDGET FOR  TIME STEP   15 STRESS PERIOD    5
  ------------------------------------------------------------------------------



     CUMULATIVE VOLUMES      L**3       RATES FOR THIS TIME STEP      L**3/T
     ------------------                 ------------------------

           IN:                                      IN:
           ---                                      ---
        INFILTRATION =   979981119.7394          INFILTRATION =          42.3750

          OUT:                                     OUT:
          ----                                     ----
              UZF ET =  1085791465.3398                UZF ET =          61.0510
        UZF RECHARGE =   179375731.7551          UZF RECHARGE =           7.9709

            IN - OUT =  -285186077.3556              IN - OUT =         -26.6469

          STORAGE:                                 STORAGE:
          --------                                 --------
      STORAGE CHANGE =  -284980111.0252        STORAGE CHANGE =         -26.6465

 PERCENT DISCREPANCY IS DIFFERENCE BETWEEN IN-OUT MINUS CHANGE IN STORAGE
 DIVIDED BY THE AVERAGE OF IN AND OUT TIMES 100

 PERCENT DISCREPANCY =           0.00     PERCENT DISCREPANCY =           0.00









 STREAM LISTING     PERIOD      5   STEP       15

 LAYER ROW COL. STREAM  RCH.  FLOW INTO     FLOW TO   FLOW OUT OF   OVRLND.     DIRECT     STREAM       STREAM     STREAM     STREAM   STREAMBED  STREAMBED
                SEG.NO.  NO.  STRM. RCH.    AQUIFER    STRM. RCH.    RUNOFF     PRECIP       ET          HEAD       DEPTH      WIDTH   CONDCTNC.   GRADIENT

   1    1    1     1     1    2.5000E+01  1.0124E+00   2.3988E+01  0.000E+00  0.000E+00  0.000E+00  1.09422E+03  1.173E+00  1.296E+01  5.833E-01  5.786E-01
   1    2    2     1     2    2.3988E+01  3.0450E+00   2.0943E+01  0.000E+00  0.000E+00  0.000E+00  1.08920E+03  1.141E+00  1.254E+01  8.780E-01  1.156E+00
   1    3    3     1     3    2.0943E+01  2.9083E+00   1.8034E+01  0.000E+00  0.000E+00  0.000E+00  1.08351E+03  1.092E+00  1.185E+01  7.108E-01  1.364E+00
   1    3    4     1     4    1.8034E+01  2.4706E+00   1.5564E+01  0.000E+00  0.000E+00  0.000E+00  1.07845E+03  1.046E+00  1.100E+01  6.106E-01  1.349E+00
   1    4    5     2     1    5.5637E+00  2.6644E+00   2.8992E+00  0.000E+00  0.000E+00  0.000E+00  1.07235E+03  4.159E-01  1.200E+01  7.800E-01  1.139E+00
   1    5    6     2     2    2.8992E+00  1.9554E+00   9.4381E-01  0.000E+00  0.000E+00  0.000E+00  1.06677E+03  2.590E-01  1.200E+01  6.000E-01  1.086E+00
   1    6    6     2     3    9.4381E-01  9.4381E-01   0.0000E+00  0.000E+00  0.000E+00  0.000E+00  1.06181E+03  1.902E-02  1.200E+01  6.000E-01  1.006E+00
   1    7    6     2     4    0.0000E+00  0.0000E+00   0.0000E+00  0.000E+00  0.000E+00  0.000E+00  1.05708E+03  0.000E+00  1.200E+01  6.000E-01  1.000E+00
   1    8    6     2     5    0.0000E+00  0.0000E+00   0.0000E+00  0.000E+00  0.000E+00  0.000E+00  1.05236E+03  0.000E+00  1.200E+01  6.000E-01  1.000E+00
   1    3    5     3     1    1.0000E+01  2.5318E+00   7.4682E+00  0.000E+00  0.000E+00  0.000E+00  1.07555E+03  1.909E+00  9.636E+00  7.227E-01  1.752E+00
   1    3    6     3     2    7.4682E+00  1.2599E+00   6.2083E+00  0.000E+00  0.000E+00  0.000E+00  1.07264E+03  1.727E+00  8.909E+00  6.682E-01  9.428E-01
   1    3    7     3     3    6.2083E+00  4.5381E-01   5.7545E+00  0.000E+00  0.000E+00  0.000E+00  1.06987E+03  1.555E+00  8.218E+00  5.547E-01  4.090E-01
   1    4    8     3     4    5.7545E+00  1.5470E+00   4.2075E+00  0.000E+00  0.000E+00  0.000E+00  1.06682E+03  1.364E+00  7.455E+00  6.709E-01  1.153E+00
   1    5    8     3     5    4.2075E+00  1.5790E+00   2.6285E+00  0.000E+00  0.000E+00  0.000E+00  1.06362E+03  1.164E+00  6.655E+00  4.991E-01  1.582E+00
   1    6    8     3     6    2.6285E+00  5.5980E-01   2.0687E+00  0.000E+00  0.000E+00  0.000E+00  1.06158E+03  1.036E+00  6.145E+00  1.844E-01  1.518E+00
   1    5   10     4     1    1.0000E+01  9.0525E-01   9.0947E+00  0.000E+00  0.000E+00  0.000E+00  1.07835E+03  6.210E-01  1.000E+01  2.500E-01  1.207E+00
   1    5    9     4     2    9.0947E+00  1.7835E+00   7.3113E+00  0.000E+00  0.000E+00  0.000E+00  1.07148E+03  5.670E-01  1.000E+01  5.000E-01  1.189E+00
   1    6    8     4     3    7.3113E+00  1.2257E+00   6.0855E+00  0.000E+00  0.000E+00  0.000E+00  1.06368E+03  5.021E-01  1.000E+01  3.500E-01  1.167E+00
   1    6    8     5     1    8.1543E+00  1.0709E+00   7.0834E+00  0.000E+00  0.000E+00  0.000E+00  1.05861E+03  6.106E-01  1.285E+01  5.140E-01  6.944E-01
   1    7    7     5     2    7.0834E+00  2.0009E+00   5.0825E+00  0.000E+00  0.000E+00  0.000E+00  1.05406E+03  5.644E-01  1.123E+01  5.613E-01  1.188E+00
   1    8    7     5     3    5.0825E+00  1.1515E+00   3.9310E+00  0.000E+00  0.000E+00  0.000E+00  1.04976E+03  5.081E-01  9.378E+00  3.282E-01  1.169E+00
   1    8    6     5     4    3.9310E+00  7.0797E-01   3.2231E+00  0.000E+00  0.000E+00  0.000E+00  1.04672E+03  4.687E-01  8.164E+00  2.041E-01  1.156E+00
   1    9    6     6     1    3.2231E+00  1.9722E+00   1.2509E+00  0.000E+00  0.000E+00  0.000E+00  1.04301E+03  2.869E-01  1.200E+01  6.000E-01  1.096E+00
   1   10    7     6     2    1.2509E+00  1.2509E+00   0.0000E+00  0.000E+00  0.000E+00  0.000E+00  1.03823E+03  4.555E-02  1.200E+01  6.000E-01  1.015E+00
   1   11    7     6     3    0.0000E+00  0.0000E+00   0.0000E+00  0.000E+00  0.000E+00  0.000E+00  1.03364E+03  0.000E+00  1.200E+01  6.000E-01  1.000E+00
   1   12    7     6     4    0.0000E+00  0.0000E+00   0.0000E+00  0.000E+00  0.000E+00  0.000E+00  1.02909E+03  0.000E+00  1.200E+01  6.000E-01  2.966E-01
   1   13    7     6     5    0.0000E+00 -8.1343E-01   8.1343E-01  0.000E+00  0.000E+00  0.000E+00  1.02591E+03  0.000E+00  1.200E+01  2.400E-01 -1.130E+00
   1   14    9     7     1    1.5000E+02  2.0507E+00   1.4795E+02  0.000E+00  0.000E+00  0.000E+00  1.03987E+03  2.286E+00  5.529E+01  5.592E+00  1.222E-01
   1   13    8     7     2    1.4795E+02  2.9901E+00   1.4496E+02  0.000E+00  0.000E+00  0.000E+00  1.03477E+03  2.272E+00  5.523E+01  6.144E+00  1.622E-01
   1   13    7     7     3    1.4496E+02  2.1180E+00   1.4284E+02  0.000E+00  0.000E+00  0.000E+00  1.02968E+03  2.259E+00  5.516E+01  5.579E+00  1.266E-01
   1   13    6     8     1    1.4365E+02  4.7270E-01   1.4318E+02  0.000E+00  0.000E+00  0.000E+00  1.02464E+03  2.770E+00  4.016E+01  4.093E+00  3.850E-02
   1   13    5     8     2    1.4318E+02 -2.1297E+00   1.4531E+02  0.000E+00  0.000E+00  0.000E+00  1.01840E+03  2.776E+00  4.025E+01  4.102E+00 -1.731E-01
   1   13    4     8     3    1.4531E+02 -3.8407E+00   1.4915E+02  0.000E+00  0.000E+00  0.000E+00  1.01217E+03  2.797E+00  4.056E+01  4.133E+00 -3.097E-01
   1   13    3     8     4    1.4915E+02 -4.1278E+00   1.5328E+02  0.000E+00  0.000E+00  0.000E+00  1.00595E+03  2.825E+00  4.097E+01  4.175E+00 -3.296E-01
   1   13    2     8     5    1.5328E+02 -2.0866E+00   1.5537E+02  0.000E+00  0.000E+00  0.000E+00  9.99722E+02  2.847E+00  4.128E+01  4.207E+00 -1.653E-01
   1   13    1     8     6    1.5537E+02 -7.0906E-01   1.5608E+02  0.000E+00  0.000E+00  0.000E+00  9.94732E+02  2.857E+00  4.142E+01  2.533E+00 -9.332E-02



1
  VOLUMETRIC BUDGET FOR ENTIRE MODEL AT END OF TIME STEP 15 IN STRESS PERIOD   5
  ------------------------------------------------------------------------------

     CUMULATIVE VOLUMES      L**3       RATES FOR THIS TIME STEP      L**3/T
     ------------------                 ------------------------

           IN:                                      IN:
           ---                                      ---
             STORAGE =    46485984.0000               STORAGE =          14.8357
       CONSTANT HEAD =           0.0000         CONSTANT HEAD =           0.0000
               WELLS =           0.0000                 WELLS =           0.0000
     HEAD DEP BOUNDS =     2744028.2500       HEAD DEP BOUNDS =           0.2090
        UZF RECHARGE =   179375712.0000          UZF RECHARGE =           7.9709
               GW ET =           0.0000                 GW ET =           0.0000
     SURFACE LEAKAGE =           0.0000       SURFACE LEAKAGE =           0.0000
      STREAM LEAKAGE =   568142464.0000        STREAM LEAKAGE =          42.6315

            TOTAL IN =   796748160.0000              TOTAL IN =          65.6470

          OUT:                                     OUT:
          ----                                     ----
             STORAGE =   165286144.0000               STORAGE =           3.2172
       CONSTANT HEAD =           0.0000         CONSTANT HEAD =           0.0000
               WELLS =   236519984.0000                 WELLS =          30.0000
     HEAD DEP BOUNDS =     3457146.7500       HEAD DEP BOUNDS =           0.2664
        UZF RECHARGE =           0.0000          UZF RECHARGE =           0.0000
               GW ET =   214652064.0000                 GW ET =          18.4334
     SURFACE LEAKAGE =           0.0000       SURFACE LEAKAGE =           0.0000
      STREAM LEAKAGE =   176466288.0000        STREAM LEAKAGE =          13.7073

           TOTAL OUT =   796381632.0000             TOTAL OUT =          65.6244

            IN - OUT =      366528.0000              IN - OUT =       2.2667E-02

 PERCENT DISCREPANCY =           0.05     PERCENT DISCREPANCY =           0.03






          TIME SUMMARY AT END OF TIME STEP  15 IN STRESS PERIOD    5
                    SECONDS     MINUTES      HOURS       DAYS        YEARS
                    -----------------------------------------------------------
   TIME STEP LENGTH 3.14103E+05  5235.0      87.251      3.6354     9.95332E-03
 STRESS PERIOD TIME 2.62800E+06  43800.      730.00      30.417     8.32763E-02
         TOTAL TIME 1.31400E+07 2.19000E+05  3650.0      152.08     0.41638    
1
1
                            STRESS PERIOD NO.    6, LENGTH =   2628000.    
                            -----------------------------------------------

                              NUMBER OF TIME STEPS =    15

                               MULTIPLIER FOR DELT =     1.100

                            INITIAL TIME STEP SIZE =   82713.07    

      0 WELLS

 REUSING NON-PARAMETER GHB CELLS FROM LAST STRESS PERIOD

      2 GHB CELLS

 REUSING STREAM SEGMENT DATA FROM LAST STRESS PERIOD



            AREAL INFILTRATION RATE
 READING ON UNIT   19 WITH FORMAT: (10F4.0)            

            1           2           3           4           5           6           7           8           9          10
 ........................................................................................................................
   1   1.0000E-08  2.0000E-08   0.000       0.000       0.000       0.000       0.000       0.000       0.000       0.000    
   2   2.0000E-08  1.0000E-08  2.0000E-08   0.000       0.000      8.0000E-08  8.0000E-08  5.0000E-08   0.000       0.000    
   3    0.000      5.0000E-08  1.0000E-08  1.0000E-08  8.0000E-08  8.0000E-08  5.0000E-08  5.0000E-08   0.000       0.000    
   4   8.0000E-08  5.0000E-08  1.0000E-08  1.0000E-08  1.0000E-08  1.0000E-08  1.0000E-08  1.0000E-08  2.0000E-08   0.000    
   5   8.0000E-08  5.0000E-08  1.0000E-08  1.0000E-08  1.0000E-08  1.0000E-08  1.0000E-08  1.0000E-08  1.0000E-08  1.0000E-08
   6   8.0000E-08  5.0000E-08  5.0000E-08  2.0000E-08  2.0000E-08  1.0000E-08  1.0000E-08  1.0000E-08  1.0000E-08  5.0000E-08
   7   8.0000E-08  5.0000E-08  5.0000E-08  2.0000E-08  2.0000E-08  1.0000E-08  1.0000E-08  2.0000E-08  2.0000E-08   0.000    
   8    0.000      5.0000E-08  5.0000E-08  2.0000E-08  2.0000E-08  1.0000E-08  1.0000E-08  2.0000E-08  5.0000E-08   0.000    
   9    0.000      5.0000E-08  5.0000E-08  2.0000E-08  2.0000E-08  1.0000E-08  1.0000E-08  2.0000E-08  5.0000E-08   0.000    
  10    0.000      5.0000E-08  5.0000E-08  2.0000E-08  2.0000E-08  1.0000E-08  1.0000E-08  2.0000E-08  5.0000E-08  8.0000E-08
  11    0.000      1.0000E-08  1.0000E-08  1.0000E-08  1.0000E-08  1.0000E-08  1.0000E-08  2.0000E-08  5.0000E-08   0.000    
  12   1.0000E-08  1.0000E-08  1.0000E-08  1.0000E-08  1.0000E-08  1.0000E-08  1.0000E-08  1.0000E-08  2.0000E-08   0.000    
  13   1.0000E-08  1.0000E-08  2.0000E-08  2.0000E-08  2.0000E-08  2.0000E-08  2.0000E-08  1.0000E-08  1.0000E-08   0.000    
  14    0.000      2.0000E-08  5.0000E-08  5.0000E-08  5.0000E-08  5.0000E-08  5.0000E-08  2.0000E-08  1.0000E-08   0.000    
  15    0.000       0.000      8.0000E-08  8.0000E-08  8.0000E-08  8.0000E-08   0.000       0.000       0.000       0.000    

USING ET RATE FROM PREVIOUS STRESS PERIOD. CURRENT PERIOD IS:       6

 USING ET EXTINCTION DEPTH FROM PREVIOUS STRESS PERIOD. CURRENT PERIOD IS:       6

 USING EXTINCTION WATER CONTENT FROM PREVIOUS STRESS PERIOD. CURRENT PERIOD IS:       6
 
 SOLVING FOR HEAD 

     7 ITERATIONS FOR TIME STEP   1 IN STRESS PERIOD    6

 MAXIMUM HEAD CHANGE FOR EACH ITERATION:

    HEAD CHANGE   HEAD CHANGE   HEAD CHANGE   HEAD CHANGE   HEAD CHANGE
  LAYER,ROW,COL LAYER,ROW,COL LAYER,ROW,COL LAYER,ROW,COL LAYER,ROW,COL
 ----------------------------------------------------------------------
     0.2993E-01   -0.8547E-02   -0.3999E-02   -0.1922E-02   -0.8699E-03
  (  1,  6,  5) (  1,  3,  6) (  1,  3,  6) (  1,  3,  6) (  1,  3,  6)
    -0.4683E-03   -0.1428E-03
  (  1,  3,  6) (  1,  3,  7)


 NO OUTPUT CONTROL FOR STRESS PERIOD    6   TIME STEP   1
 
 SOLVING FOR HEAD 
     7 ITERATIONS FOR TIME STEP   2 IN STRESS PERIOD    6

 MAXIMUM HEAD CHANGE FOR EACH ITERATION:

    HEAD CHANGE   HEAD CHANGE   HEAD CHANGE   HEAD CHANGE   HEAD CHANGE
  LAYER,ROW,COL LAYER,ROW,COL LAYER,ROW,COL LAYER,ROW,COL LAYER,ROW,COL
 ----------------------------------------------------------------------
     0.3171E-01   -0.8892E-02   -0.4121E-02   -0.1889E-02   -0.9118E-03
  (  1,  6,  5) (  1,  3,  6) (  1,  3,  6) (  1,  3,  6) (  1,  3,  6)
    -0.4479E-03   -0.1965E-03
  (  1,  3,  6) (  1,  3,  6)


 NO OUTPUT CONTROL FOR STRESS PERIOD    6   TIME STEP   2
 
 SOLVING FOR HEAD 
     8 ITERATIONS FOR TIME STEP   3 IN STRESS PERIOD    6

 MAXIMUM HEAD CHANGE FOR EACH ITERATION:

    HEAD CHANGE   HEAD CHANGE   HEAD CHANGE   HEAD CHANGE   HEAD CHANGE
  LAYER,ROW,COL LAYER,ROW,COL LAYER,ROW,COL LAYER,ROW,COL LAYER,ROW,COL
 ----------------------------------------------------------------------
     0.3364E-01   -0.9221E-02   -0.4288E-02   -0.2024E-02   -0.9278E-03
  (  1,  6,  5) (  1,  3,  6) (  1,  3,  6) (  1,  3,  6) (  1,  3,  6)
    -0.4169E-03   -0.2006E-03    0.5836E-04
  (  1,  3,  6) (  1,  3,  6) (  1,  6,  8)


 NO OUTPUT CONTROL FOR STRESS PERIOD    6   TIME STEP   3
 
 SOLVING FOR HEAD 
     8 ITERATIONS FOR TIME STEP   4 IN STRESS PERIOD    6

 MAXIMUM HEAD CHANGE FOR EACH ITERATION:

    HEAD CHANGE   HEAD CHANGE   HEAD CHANGE   HEAD CHANGE   HEAD CHANGE
  LAYER,ROW,COL LAYER,ROW,COL LAYER,ROW,COL LAYER,ROW,COL LAYER,ROW,COL
 ----------------------------------------------------------------------
     0.3560E-01   -0.9492E-02   -0.4376E-02   -0.1953E-02   -0.9661E-03
  (  1,  6,  5) (  1,  3,  6) (  1,  3,  6) (  1,  3,  6) (  1,  3,  6)
    -0.4466E-03   -0.2177E-03   -0.1057E-03
  (  1,  3,  6) (  1,  3,  6) (  1,  3,  6)


 NO OUTPUT CONTROL FOR STRESS PERIOD    6   TIME STEP   4
 
 SOLVING FOR HEAD 
     8 ITERATIONS FOR TIME STEP   5 IN STRESS PERIOD    6

 MAXIMUM HEAD CHANGE FOR EACH ITERATION:

    HEAD CHANGE   HEAD CHANGE   HEAD CHANGE   HEAD CHANGE   HEAD CHANGE
  LAYER,ROW,COL LAYER,ROW,COL LAYER,ROW,COL LAYER,ROW,COL LAYER,ROW,COL
 ----------------------------------------------------------------------
     0.3758E-01   -0.9676E-02   -0.4429E-02   -0.2069E-02   -0.8950E-03
  (  1,  6,  5) (  1,  3,  6) (  1,  3,  6) (  1,  3,  6) (  1,  3,  6)
    -0.4593E-03   -0.2321E-03   -0.1153E-03
  (  1,  3,  6) (  1,  3,  6) (  1,  3,  6)


 OUTPUT CONTROL FOR STRESS PERIOD    6   TIME STEP   5
    PRINT BUDGET
    SAVE BUDGET

  HEAD DEP BOUNDS   PERIOD    6   STEP   5
 BOUNDARY      1   LAYER   1   ROW    13   COL     1   RATE   -0.265900    
 BOUNDARY      2   LAYER   1   ROW    14   COL     9   RATE    0.209016    
 UBDSV3 SAVING "           GW ET" ON UNIT  61 AT TIME STEP  5, STRESS PERIOD   6
 UBDSV3 SAVING "    UZF INFILTR." ON UNIT  61 AT TIME STEP  5, STRESS PERIOD   6
 UBDSV3 SAVING "    UZF RECHARGE" ON UNIT  61 AT TIME STEP  5, STRESS PERIOD   6
 UBDSV3 SAVING " SURFACE LEAKAGE" ON UNIT  61 AT TIME STEP  5, STRESS PERIOD   6


UNSATURATED ZONE PACKAGE VOLUMETRIC BUDGET FOR  TIME STEP    5 STRESS PERIOD    6
  ------------------------------------------------------------------------------



     CUMULATIVE VOLUMES      L**3       RATES FOR THIS TIME STEP      L**3/T
     ------------------                 ------------------------

           IN:                                      IN:
           ---                                      ---
        INFILTRATION =  1022777461.6790          INFILTRATION =          84.7500

          OUT:                                     OUT:
          ----                                     ----
              UZF ET =  1117397117.0615                UZF ET =          63.2763
        UZF RECHARGE =   183520166.0199          UZF RECHARGE =           8.3599

            IN - OUT =  -278139821.4024              IN - OUT =          13.1138

          STORAGE:                                 STORAGE:
          --------                                 --------
      STORAGE CHANGE =  -277933855.0720        STORAGE CHANGE =          13.1138

 PERCENT DISCREPANCY IS DIFFERENCE BETWEEN IN-OUT MINUS CHANGE IN STORAGE
 DIVIDED BY THE AVERAGE OF IN AND OUT TIMES 100

 PERCENT DISCREPANCY =           0.00     PERCENT DISCREPANCY =           0.00









 STREAM LISTING     PERIOD      6   STEP        5

 LAYER ROW COL. STREAM  RCH.  FLOW INTO     FLOW TO   FLOW OUT OF   OVRLND.     DIRECT     STREAM       STREAM     STREAM     STREAM   STREAMBED  STREAMBED
                SEG.NO.  NO.  STRM. RCH.    AQUIFER    STRM. RCH.    RUNOFF     PRECIP       ET          HEAD       DEPTH      WIDTH   CONDCTNC.   GRADIENT

   1    1    1     1     1    2.5000E+01  1.0171E+00   2.3983E+01  0.000E+00  0.000E+00  0.000E+00  1.09422E+03  1.173E+00  1.296E+01  5.832E-01  5.813E-01
   1    2    2     1     2    2.3983E+01  3.0503E+00   2.0933E+01  0.000E+00  0.000E+00  0.000E+00  1.08920E+03  1.141E+00  1.254E+01  8.778E-01  1.158E+00
   1    3    3     1     3    2.0933E+01  2.9075E+00   1.8025E+01  0.000E+00  0.000E+00  0.000E+00  1.08351E+03  1.092E+00  1.184E+01  7.106E-01  1.364E+00
   1    3    4     1     4    1.8025E+01  2.4698E+00   1.5555E+01  0.000E+00  0.000E+00  0.000E+00  1.07845E+03  1.046E+00  1.100E+01  6.105E-01  1.349E+00
   1    4    5     2     1    5.5553E+00  2.6641E+00   2.8912E+00  0.000E+00  0.000E+00  0.000E+00  1.07235E+03  4.155E-01  1.200E+01  7.800E-01  1.138E+00
   1    5    6     2     2    2.8912E+00  1.9550E+00   9.3617E-01  0.000E+00  0.000E+00  0.000E+00  1.06677E+03  2.584E-01  1.200E+01  6.000E-01  1.086E+00
   1    6    6     2     3    9.3617E-01  9.3617E-01   0.0000E+00  0.000E+00  0.000E+00  0.000E+00  1.06181E+03  1.893E-02  1.200E+01  6.000E-01  1.006E+00
   1    7    6     2     4    0.0000E+00  0.0000E+00   0.0000E+00  0.000E+00  0.000E+00  0.000E+00  1.05708E+03  0.000E+00  1.200E+01  6.000E-01  1.000E+00
   1    8    6     2     5    0.0000E+00  0.0000E+00   0.0000E+00  0.000E+00  0.000E+00  0.000E+00  1.05236E+03  0.000E+00  1.200E+01  6.000E-01  1.000E+00
   1    3    5     3     1    1.0000E+01  2.6545E+00   7.3455E+00  0.000E+00  0.000E+00  0.000E+00  1.07555E+03  1.909E+00  9.636E+00  7.227E-01  1.836E+00
   1    3    6     3     2    7.3455E+00  1.3826E+00   5.9629E+00  0.000E+00  0.000E+00  0.000E+00  1.07264E+03  1.727E+00  8.909E+00  6.682E-01  1.035E+00
   1    3    7     3     3    5.9629E+00  5.3586E-01   5.4270E+00  0.000E+00  0.000E+00  0.000E+00  1.06987E+03  1.555E+00  8.218E+00  5.547E-01  4.830E-01
   1    4    8     3     4    5.4270E+00  1.5401E+00   3.8869E+00  0.000E+00  0.000E+00  0.000E+00  1.06682E+03  1.364E+00  7.455E+00  6.709E-01  1.148E+00
   1    5    8     3     5    3.8869E+00  1.5790E+00   2.3080E+00  0.000E+00  0.000E+00  0.000E+00  1.06362E+03  1.164E+00  6.655E+00  4.991E-01  1.582E+00
   1    6    8     3     6    2.3080E+00  5.5980E-01   1.7482E+00  0.000E+00  0.000E+00  0.000E+00  1.06158E+03  1.036E+00  6.145E+00  1.844E-01  1.518E+00
   1    5   10     4     1    1.0000E+01  9.0525E-01   9.0947E+00  0.000E+00  0.000E+00  0.000E+00  1.07835E+03  6.210E-01  1.000E+01  2.500E-01  1.207E+00
   1    5    9     4     2    9.0947E+00  1.7835E+00   7.3113E+00  0.000E+00  0.000E+00  0.000E+00  1.07148E+03  5.670E-01  1.000E+01  5.000E-01  1.189E+00
   1    6    8     4     3    7.3113E+00  1.2257E+00   6.0855E+00  0.000E+00  0.000E+00  0.000E+00  1.06368E+03  5.021E-01  1.000E+01  3.500E-01  1.167E+00
   1    6    8     5     1    7.8337E+00  1.0413E+00   6.7924E+00  0.000E+00  0.000E+00  0.000E+00  1.05860E+03  6.020E-01  1.254E+01  5.015E-01  6.921E-01
   1    7    7     5     2    6.7924E+00  1.9439E+00   4.8485E+00  0.000E+00  0.000E+00  0.000E+00  1.05406E+03  5.557E-01  1.093E+01  5.467E-01  1.185E+00
   1    8    7     5     3    4.8485E+00  1.1153E+00   3.7332E+00  0.000E+00  0.000E+00  0.000E+00  1.04975E+03  4.995E-01  9.106E+00  3.187E-01  1.166E+00
   1    8    6     5     4    3.7332E+00  6.8397E-01   3.0492E+00  0.000E+00  0.000E+00  0.000E+00  1.04671E+03  4.600E-01  7.907E+00  1.977E-01  1.153E+00
   1    9    6     6     1    3.0492E+00  1.9642E+00   1.0850E+00  0.000E+00  0.000E+00  0.000E+00  1.04300E+03  2.737E-01  1.200E+01  6.000E-01  1.091E+00
   1   10    7     6     2    1.0850E+00  1.0850E+00   0.0000E+00  0.000E+00  0.000E+00  0.000E+00  1.03822E+03  4.183E-02  1.200E+01  6.000E-01  1.014E+00
   1   11    7     6     3    0.0000E+00  0.0000E+00   0.0000E+00  0.000E+00  0.000E+00  0.000E+00  1.03364E+03  0.000E+00  1.200E+01  6.000E-01  1.000E+00
   1   12    7     6     4    0.0000E+00  0.0000E+00   0.0000E+00  0.000E+00  0.000E+00  0.000E+00  1.02909E+03  0.000E+00  1.200E+01  6.000E-01  2.949E-01
   1   13    7     6     5    0.0000E+00 -8.0906E-01   8.0906E-01  0.000E+00  0.000E+00  0.000E+00  1.02591E+03  0.000E+00  1.200E+01  2.400E-01 -1.124E+00
   1   14    9     7     1    1.5000E+02  2.0518E+00   1.4795E+02  0.000E+00  0.000E+00  0.000E+00  1.03987E+03  2.286E+00  5.529E+01  5.592E+00  1.223E-01
   1   13    8     7     2    1.4795E+02  2.9931E+00   1.4496E+02  0.000E+00  0.000E+00  0.000E+00  1.03477E+03  2.272E+00  5.523E+01  6.144E+00  1.624E-01
   1   13    7     7     3    1.4496E+02  2.2179E+00   1.4274E+02  0.000E+00  0.000E+00  0.000E+00  1.02968E+03  2.258E+00  5.516E+01  5.579E+00  1.325E-01
   1   13    6     8     1    1.4355E+02  5.5834E-01   1.4299E+02  0.000E+00  0.000E+00  0.000E+00  1.02464E+03  2.769E+00  4.015E+01  4.091E+00  4.549E-02
   1   13    5     8     2    1.4299E+02 -2.1030E+00   1.4509E+02  0.000E+00  0.000E+00  0.000E+00  1.01840E+03  2.774E+00  4.023E+01  4.099E+00 -1.710E-01
   1   13    4     8     3    1.4509E+02 -3.8244E+00   1.4892E+02  0.000E+00  0.000E+00  0.000E+00  1.01217E+03  2.796E+00  4.054E+01  4.131E+00 -3.086E-01
   1   13    3     8     4    1.4892E+02 -4.1092E+00   1.5302E+02  0.000E+00  0.000E+00  0.000E+00  1.00595E+03  2.824E+00  4.094E+01  4.172E+00 -3.283E-01
   1   13    2     8     5    1.5302E+02 -2.0831E+00   1.5511E+02  0.000E+00  0.000E+00  0.000E+00  9.99720E+02  2.845E+00  4.126E+01  4.204E+00 -1.652E-01
   1   13    1     8     6    1.5511E+02 -6.7730E-01   1.5578E+02  0.000E+00  0.000E+00  0.000E+00  9.94730E+02  2.855E+00  4.139E+01  2.531E+00 -8.920E-02



1
  VOLUMETRIC BUDGET FOR ENTIRE MODEL AT END OF TIME STEP  5 IN STRESS PERIOD   6
  ------------------------------------------------------------------------------

     CUMULATIVE VOLUMES      L**3       RATES FOR THIS TIME STEP      L**3/T
     ------------------                 ------------------------

           IN:                                      IN:
           ---                                      ---
             STORAGE =    48593956.0000               STORAGE =           3.5878
       CONSTANT HEAD =           0.0000         CONSTANT HEAD =           0.0000
               WELLS =           0.0000                 WELLS =           0.0000
     HEAD DEP BOUNDS =     2849575.2500       HEAD DEP BOUNDS =           0.2090
        UZF RECHARGE =   183520144.0000          UZF RECHARGE =           8.3599
               GW ET =           0.0000                 GW ET =           0.0000
     SURFACE LEAKAGE =           0.0000       SURFACE LEAKAGE =           0.0000
      STREAM LEAKAGE =   589731136.0000        STREAM LEAKAGE =          42.8212

            TOTAL IN =   824694784.0000              TOTAL IN =          54.9780

          OUT:                                     OUT:
          ----                                     ----
             STORAGE =   176928880.0000               STORAGE =          22.7455
       CONSTANT HEAD =           0.0000         CONSTANT HEAD =           0.0000
               WELLS =   236519984.0000                 WELLS =           0.0000
     HEAD DEP BOUNDS =     3591528.0000       HEAD DEP BOUNDS =           0.2659
        UZF RECHARGE =           0.0000          UZF RECHARGE =           0.0000
               GW ET =   223903056.0000                 GW ET =          18.2655
     SURFACE LEAKAGE =           0.0000       SURFACE LEAKAGE =           0.0000
      STREAM LEAKAGE =   183355616.0000        STREAM LEAKAGE =          13.6060

           TOTAL OUT =   824299072.0000             TOTAL OUT =          54.8829

            IN - OUT =      395712.0000              IN - OUT =       9.5066E-02

 PERCENT DISCREPANCY =           0.05     PERCENT DISCREPANCY =           0.17






          TIME SUMMARY AT END OF TIME STEP   5 IN STRESS PERIOD    6
                    SECONDS     MINUTES      HOURS       DAYS        YEARS
                    -----------------------------------------------------------
   TIME STEP LENGTH 1.21100E+05  2018.3      33.639      1.4016     3.83743E-03
 STRESS PERIOD TIME 5.04972E+05  8416.2      140.27      5.8446     1.60016E-02
         TOTAL TIME 1.36450E+07 2.27416E+05  3790.3      157.93     0.43238    
1
 
 SOLVING FOR HEAD 
     7 ITERATIONS FOR TIME STEP   6 IN STRESS PERIOD    6

 MAXIMUM HEAD CHANGE FOR EACH ITERATION:

    HEAD CHANGE   HEAD CHANGE   HEAD CHANGE   HEAD CHANGE   HEAD CHANGE
  LAYER,ROW,COL LAYER,ROW,COL LAYER,ROW,COL LAYER,ROW,COL LAYER,ROW,COL
 ----------------------------------------------------------------------
     0.4030E-01   -0.9778E-02   -0.4450E-02   -0.2023E-02   -0.8565E-03
  (  1,  9,  5) (  1,  3,  6) (  1,  3,  6) (  1,  3,  6) (  1,  3,  6)
    -0.4781E-03   -0.1674E-03
  (  1,  3,  6) (  1,  3,  6)


 NO OUTPUT CONTROL FOR STRESS PERIOD    6   TIME STEP   6
 
 SOLVING FOR HEAD 
     8 ITERATIONS FOR TIME STEP   7 IN STRESS PERIOD    6

 MAXIMUM HEAD CHANGE FOR EACH ITERATION:

    HEAD CHANGE   HEAD CHANGE   HEAD CHANGE   HEAD CHANGE   HEAD CHANGE
  LAYER,ROW,COL LAYER,ROW,COL LAYER,ROW,COL LAYER,ROW,COL LAYER,ROW,COL
 ----------------------------------------------------------------------
     0.4314E-01   -0.9832E-02   -0.4526E-02   -0.1970E-02   -0.9765E-03
  (  1,  9,  5) (  1,  3,  6) (  1,  3,  6) (  1,  3,  6) (  1,  3,  6)
    -0.4411E-03   -0.2127E-03   -0.1011E-03
  (  1,  3,  6) (  1,  3,  7) (  1,  3,  6)


 NO OUTPUT CONTROL FOR STRESS PERIOD    6   TIME STEP   7
 
 SOLVING FOR HEAD 
     8 ITERATIONS FOR TIME STEP   8 IN STRESS PERIOD    6

 MAXIMUM HEAD CHANGE FOR EACH ITERATION:

    HEAD CHANGE   HEAD CHANGE   HEAD CHANGE   HEAD CHANGE   HEAD CHANGE
  LAYER,ROW,COL LAYER,ROW,COL LAYER,ROW,COL LAYER,ROW,COL LAYER,ROW,COL
 ----------------------------------------------------------------------
     0.4683E-01    0.1439E-01    0.4599E-02   -0.1972E-02   -0.9367E-03
  (  1,  7,  4) (  1,  6,  5) (  1,  6,  5) (  1,  3,  6) (  1,  3,  6)
    -0.4561E-03   -0.2296E-03   -0.1094E-03
  (  1,  3,  6) (  1,  3,  7) (  1,  3,  6)


 NO OUTPUT CONTROL FOR STRESS PERIOD    6   TIME STEP   8
 
 SOLVING FOR HEAD 
     8 ITERATIONS FOR TIME STEP   9 IN STRESS PERIOD    6

 MAXIMUM HEAD CHANGE FOR EACH ITERATION:

    HEAD CHANGE   HEAD CHANGE   HEAD CHANGE   HEAD CHANGE   HEAD CHANGE
  LAYER,ROW,COL LAYER,ROW,COL LAYER,ROW,COL LAYER,ROW,COL LAYER,ROW,COL
 ----------------------------------------------------------------------
     0.5095E-01    0.1626E-01    0.5276E-02   -0.2013E-02   -0.8889E-03
  (  1,  7,  4) (  1,  9,  5) (  1,  9,  5) (  1,  3,  6) (  1,  3,  6)
    -0.3716E-03   -0.2230E-03    0.8554E-04
  (  1,  3,  6) (  1,  3,  6) (  1, 13,  2)


 NO OUTPUT CONTROL FOR STRESS PERIOD    6   TIME STEP   9
 
 SOLVING FOR HEAD 
     7 ITERATIONS FOR TIME STEP  10 IN STRESS PERIOD    6

 MAXIMUM HEAD CHANGE FOR EACH ITERATION:

    HEAD CHANGE   HEAD CHANGE   HEAD CHANGE   HEAD CHANGE   HEAD CHANGE
  LAYER,ROW,COL LAYER,ROW,COL LAYER,ROW,COL LAYER,ROW,COL LAYER,ROW,COL
 ----------------------------------------------------------------------
     0.5590E-01    0.1770E-01    0.5840E-02    0.1930E-02   -0.6630E-03
  (  1,  7,  4) (  1,  7,  5) (  1,  7,  5) (  1,  7,  5) (  1,  3,  7)
    -0.3348E-03   -0.1718E-03
  (  1,  3,  5) (  1,  3,  5)


 OUTPUT CONTROL FOR STRESS PERIOD    6   TIME STEP  10
    PRINT BUDGET
    SAVE BUDGET

  HEAD DEP BOUNDS   PERIOD    6   STEP  10
 BOUNDARY      1   LAYER   1   ROW    13   COL     1   RATE   -0.265148    
 BOUNDARY      2   LAYER   1   ROW    14   COL     9   RATE    0.209004    
 UBDSV3 SAVING "           GW ET" ON UNIT  61 AT TIME STEP 10, STRESS PERIOD   6
 UBDSV3 SAVING "    UZF INFILTR." ON UNIT  61 AT TIME STEP 10, STRESS PERIOD   6
 UBDSV3 SAVING "    UZF RECHARGE" ON UNIT  61 AT TIME STEP 10, STRESS PERIOD   6
 UBDSV3 SAVING " SURFACE LEAKAGE" ON UNIT  61 AT TIME STEP 10, STRESS PERIOD   6


UNSATURATED ZONE PACKAGE VOLUMETRIC BUDGET FOR  TIME STEP   10 STRESS PERIOD    6
  ------------------------------------------------------------------------------



     CUMULATIVE VOLUMES      L**3       RATES FOR THIS TIME STEP      L**3/T
     ------------------                 ------------------------

           IN:                                      IN:
           ---                                      ---
        INFILTRATION =  1091701401.6632          INFILTRATION =          84.7500

          OUT:                                     OUT:
          ----                                     ----
              UZF ET =  1169944184.3249                UZF ET =          65.3732
        UZF RECHARGE =   192158062.9919          UZF RECHARGE =          12.9923

            IN - OUT =  -270400845.6536              IN - OUT =           6.3845

          STORAGE:                                 STORAGE:
          --------                                 --------
      STORAGE CHANGE =  -270226759.3206        STORAGE CHANGE =           6.3085

 PERCENT DISCREPANCY IS DIFFERENCE BETWEEN IN-OUT MINUS CHANGE IN STORAGE
 DIVIDED BY THE AVERAGE OF IN AND OUT TIMES 100

 PERCENT DISCREPANCY =           0.00     PERCENT DISCREPANCY =           0.09









 STREAM LISTING     PERIOD      6   STEP       10

 LAYER ROW COL. STREAM  RCH.  FLOW INTO     FLOW TO   FLOW OUT OF   OVRLND.     DIRECT     STREAM       STREAM     STREAM     STREAM   STREAMBED  STREAMBED
                SEG.NO.  NO.  STRM. RCH.    AQUIFER    STRM. RCH.    RUNOFF     PRECIP       ET          HEAD       DEPTH      WIDTH   CONDCTNC.   GRADIENT

   1    1    1     1     1    2.5000E+01  1.0235E+00   2.3976E+01  0.000E+00  0.000E+00  0.000E+00  1.09422E+03  1.173E+00  1.296E+01  5.832E-01  5.850E-01
   1    2    2     1     2    2.3976E+01  3.0562E+00   2.0920E+01  0.000E+00  0.000E+00  0.000E+00  1.08920E+03  1.141E+00  1.254E+01  8.777E-01  1.161E+00
   1    3    3     1     3    2.0920E+01  2.9065E+00   1.8014E+01  0.000E+00  0.000E+00  0.000E+00  1.08351E+03  1.091E+00  1.184E+01  7.104E-01  1.364E+00
   1    3    4     1     4    1.8014E+01  2.4689E+00   1.5545E+01  0.000E+00  0.000E+00  0.000E+00  1.07845E+03  1.045E+00  1.100E+01  6.103E-01  1.348E+00
   1    4    5     2     1    5.5448E+00  2.6636E+00   2.8812E+00  0.000E+00  0.000E+00  0.000E+00  1.07235E+03  4.149E-01  1.200E+01  7.800E-01  1.138E+00
   1    5    6     2     2    2.8812E+00  1.9546E+00   9.2664E-01  0.000E+00  0.000E+00  0.000E+00  1.06677E+03  2.576E-01  1.200E+01  6.000E-01  1.086E+00
   1    6    6     2     3    9.2664E-01  9.2664E-01   0.0000E+00  0.000E+00  0.000E+00  0.000E+00  1.06180E+03  9.406E-03  1.200E+01  6.000E-01  1.003E+00
   1    7    6     2     4    0.0000E+00  0.0000E+00   0.0000E+00  0.000E+00  0.000E+00  0.000E+00  1.05708E+03  0.000E+00  1.200E+01  6.000E-01  1.000E+00
   1    8    6     2     5    0.0000E+00  0.0000E+00   0.0000E+00  0.000E+00  0.000E+00  0.000E+00  1.05236E+03  0.000E+00  1.200E+01  6.000E-01  1.000E+00
   1    3    5     3     1    1.0000E+01  2.7745E+00   7.2255E+00  0.000E+00  0.000E+00  0.000E+00  1.07555E+03  1.909E+00  9.636E+00  7.227E-01  1.919E+00
   1    3    6     3     2    7.2255E+00  1.4924E+00   5.7331E+00  0.000E+00  0.000E+00  0.000E+00  1.07264E+03  1.727E+00  8.909E+00  6.682E-01  1.117E+00
   1    3    7     3     3    5.7331E+00  6.3074E-01   5.1023E+00  0.000E+00  0.000E+00  0.000E+00  1.06987E+03  1.555E+00  8.218E+00  5.547E-01  5.685E-01
   1    4    8     3     4    5.1023E+00  1.5300E+00   3.5723E+00  0.000E+00  0.000E+00  0.000E+00  1.06682E+03  1.364E+00  7.455E+00  6.709E-01  1.140E+00
   1    5    8     3     5    3.5723E+00  1.5790E+00   1.9934E+00  0.000E+00  0.000E+00  0.000E+00  1.06362E+03  1.164E+00  6.655E+00  4.991E-01  1.582E+00
   1    6    8     3     6    1.9934E+00  5.5980E-01   1.4336E+00  0.000E+00  0.000E+00  0.000E+00  1.06158E+03  1.036E+00  6.145E+00  1.844E-01  1.518E+00
   1    5   10     4     1    1.0000E+01  9.0525E-01   9.0947E+00  0.000E+00  0.000E+00  0.000E+00  1.07835E+03  6.210E-01  1.000E+01  2.500E-01  1.207E+00
   1    5    9     4     2    9.0947E+00  1.7835E+00   7.3113E+00  0.000E+00  0.000E+00  0.000E+00  1.07148E+03  5.670E-01  1.000E+01  5.000E-01  1.189E+00
   1    6    8     4     3    7.3113E+00  1.2257E+00   6.0855E+00  0.000E+00  0.000E+00  0.000E+00  1.06368E+03  5.021E-01  1.000E+01  3.500E-01  1.167E+00
   1    6    8     5     1    7.5191E+00  1.0115E+00   6.5076E+00  0.000E+00  0.000E+00  0.000E+00  1.05859E+03  5.932E-01  1.223E+01  4.891E-01  6.894E-01
   1    7    7     5     2    6.5076E+00  1.8874E+00   4.6202E+00  0.000E+00  0.000E+00  0.000E+00  1.05405E+03  5.470E-01  1.064E+01  5.321E-01  1.182E+00
   1    8    7     5     3    4.6202E+00  1.0795E+00   3.5407E+00  0.000E+00  0.000E+00  0.000E+00  1.04974E+03  4.908E-01  8.835E+00  3.092E-01  1.164E+00
   1    8    6     5     4    3.5407E+00  6.6021E-01   2.8805E+00  0.000E+00  0.000E+00  0.000E+00  1.04670E+03  4.513E-01  7.652E+00  1.913E-01  1.150E+00
   1    9    6     6     1    2.8805E+00  1.9562E+00   9.2430E-01  0.000E+00  0.000E+00  0.000E+00  1.04299E+03  2.604E-01  1.200E+01  6.000E-01  1.087E+00
   1   10    7     6     2    9.2430E-01  9.2430E-01   0.0000E+00  0.000E+00  0.000E+00  0.000E+00  1.03819E+03  9.499E-03  1.200E+01  6.000E-01  1.003E+00
   1   11    7     6     3    0.0000E+00  0.0000E+00   0.0000E+00  0.000E+00  0.000E+00  0.000E+00  1.03364E+03  0.000E+00  1.200E+01  6.000E-01  1.000E+00
   1   12    7     6     4    0.0000E+00  0.0000E+00   0.0000E+00  0.000E+00  0.000E+00  0.000E+00  1.02909E+03  0.000E+00  1.200E+01  6.000E-01  2.931E-01
   1   13    7     6     5    0.0000E+00 -8.0497E-01   8.0497E-01  0.000E+00  0.000E+00  0.000E+00  1.02591E+03  0.000E+00  1.200E+01  2.400E-01 -1.118E+00
   1   14    9     7     1    1.5000E+02  2.0502E+00   1.4795E+02  0.000E+00  0.000E+00  0.000E+00  1.03987E+03  2.286E+00  5.529E+01  5.592E+00  1.222E-01
   1   13    8     7     2    1.4795E+02  2.9989E+00   1.4495E+02  0.000E+00  0.000E+00  0.000E+00  1.03477E+03  2.272E+00  5.523E+01  6.144E+00  1.627E-01
   1   13    7     7     3    1.4495E+02  2.3113E+00   1.4264E+02  0.000E+00  0.000E+00  0.000E+00  1.02968E+03  2.258E+00  5.516E+01  5.578E+00  1.381E-01
   1   13    6     8     1    1.4344E+02  6.3787E-01   1.4281E+02  0.000E+00  0.000E+00  0.000E+00  1.02464E+03  2.768E+00  4.013E+01  4.090E+00  5.199E-02
   1   13    5     8     2    1.4281E+02 -2.1805E+00   1.4499E+02  0.000E+00  0.000E+00  0.000E+00  1.01840E+03  2.773E+00  4.021E+01  4.098E+00 -1.774E-01
   1   13    4     8     3    1.4499E+02 -3.9310E+00   1.4892E+02  0.000E+00  0.000E+00  0.000E+00  1.01217E+03  2.795E+00  4.053E+01  4.130E+00 -3.173E-01
   1   13    3     8     4    1.4892E+02 -4.2032E+00   1.5312E+02  0.000E+00  0.000E+00  0.000E+00  1.00595E+03  2.824E+00  4.095E+01  4.173E+00 -3.358E-01
   1   13    2     8     5    1.5312E+02 -2.0757E+00   1.5520E+02  0.000E+00  0.000E+00  0.000E+00  9.99721E+02  2.846E+00  4.127E+01  4.205E+00 -1.645E-01
   1   13    1     8     6    1.5520E+02 -6.2621E-01   1.5582E+02  0.000E+00  0.000E+00  0.000E+00  9.94730E+02  2.855E+00  4.140E+01  2.531E+00 -8.246E-02



1
  VOLUMETRIC BUDGET FOR ENTIRE MODEL AT END OF TIME STEP 10 IN STRESS PERIOD   6
  ------------------------------------------------------------------------------

     CUMULATIVE VOLUMES      L**3       RATES FOR THIS TIME STEP      L**3/T
     ------------------                 ------------------------

           IN:                                      IN:
           ---                                      ---
             STORAGE =    50718872.0000               STORAGE =           1.8486
       CONSTANT HEAD =           0.0000         CONSTANT HEAD =           0.0000
               WELLS =           0.0000                 WELLS =           0.0000
     HEAD DEP BOUNDS =     3019552.2500       HEAD DEP BOUNDS =           0.2090
        UZF RECHARGE =   192158032.0000          UZF RECHARGE =          12.9923
               GW ET =           0.0000                 GW ET =           0.0000
     SURFACE LEAKAGE =           0.0000       SURFACE LEAKAGE =           0.0000
      STREAM LEAKAGE =   624649728.0000        STREAM LEAKAGE =          42.9983

            TOTAL IN =   870546176.0000              TOTAL IN =          58.0482

          OUT:                                     OUT:
          ----                                     ----
             STORAGE =   196608496.0000               STORAGE =          25.7996
       CONSTANT HEAD =           0.0000         CONSTANT HEAD =           0.0000
               WELLS =   236519984.0000                 WELLS =           0.0000
     HEAD DEP BOUNDS =     3807395.0000       HEAD DEP BOUNDS =           0.2651
        UZF RECHARGE =           0.0000          UZF RECHARGE =           0.0000
               GW ET =   238682800.0000                 GW ET =          18.1261
     SURFACE LEAKAGE =           0.0000       SURFACE LEAKAGE =           0.0000
      STREAM LEAKAGE =   194519680.0000        STREAM LEAKAGE =          13.8217

           TOTAL OUT =   870138368.0000             TOTAL OUT =          58.0126

            IN - OUT =      407808.0000              IN - OUT =       3.5580E-02

 PERCENT DISCREPANCY =           0.05     PERCENT DISCREPANCY =           0.06






          TIME SUMMARY AT END OF TIME STEP  10 IN STRESS PERIOD    6
                    SECONDS     MINUTES      HOURS       DAYS        YEARS
                    -----------------------------------------------------------
   TIME STEP LENGTH 1.95033E+05  3250.6      54.176      2.2573     6.18023E-03
 STRESS PERIOD TIME 1.31823E+06  21971.      366.18      15.257     4.17723E-02
         TOTAL TIME 1.44582E+07 2.40970E+05  4016.2      167.34     0.45815    
1
 
 SOLVING FOR HEAD 
    10 ITERATIONS FOR TIME STEP  11 IN STRESS PERIOD    6

 MAXIMUM HEAD CHANGE FOR EACH ITERATION:

    HEAD CHANGE   HEAD CHANGE   HEAD CHANGE   HEAD CHANGE   HEAD CHANGE
  LAYER,ROW,COL LAYER,ROW,COL LAYER,ROW,COL LAYER,ROW,COL LAYER,ROW,COL
 ----------------------------------------------------------------------
     0.6220E-01    0.2080E-01    0.1102E-01    0.5849E-02    0.3111E-02
  (  1,  9,  4) (  1,  3,  6) (  1,  3,  6) (  1,  3,  6) (  1,  3,  6)
     0.1655E-02    0.8772E-03    0.4785E-03    0.2172E-03    0.1040E-03
  (  1,  3,  6) (  1,  3,  6) (  1,  3,  6) (  1,  3,  6) (  1,  3,  6)


 NO OUTPUT CONTROL FOR STRESS PERIOD    6   TIME STEP  11
 
 SOLVING FOR HEAD 
    10 ITERATIONS FOR TIME STEP  12 IN STRESS PERIOD    6

 MAXIMUM HEAD CHANGE FOR EACH ITERATION:

    HEAD CHANGE   HEAD CHANGE   HEAD CHANGE   HEAD CHANGE   HEAD CHANGE
  LAYER,ROW,COL LAYER,ROW,COL LAYER,ROW,COL LAYER,ROW,COL LAYER,ROW,COL
 ----------------------------------------------------------------------
     0.6711E-01    0.2550E-01    0.1328E-01    0.6921E-02    0.3610E-02
  (  1,  8,  4) (  1,  3,  5) (  1,  3,  5) (  1,  3,  5) (  1,  3,  5)
     0.1904E-02    0.9703E-03    0.5221E-03    0.2355E-03    0.1129E-03
  (  1,  3,  5) (  1,  3,  5) (  1,  3,  5) (  1,  3,  5) (  1,  3,  5)


 NO OUTPUT CONTROL FOR STRESS PERIOD    6   TIME STEP  12
 
 SOLVING FOR HEAD 
    10 ITERATIONS FOR TIME STEP  13 IN STRESS PERIOD    6

 MAXIMUM HEAD CHANGE FOR EACH ITERATION:

    HEAD CHANGE   HEAD CHANGE   HEAD CHANGE   HEAD CHANGE   HEAD CHANGE
  LAYER,ROW,COL LAYER,ROW,COL LAYER,ROW,COL LAYER,ROW,COL LAYER,ROW,COL
 ----------------------------------------------------------------------
     0.7241E-01    0.2424E-01    0.1121E-01    0.5817E-02    0.3015E-02
  (  1,  8,  4) (  1,  8,  4) (  1,  3,  5) (  1,  3,  5) (  1,  3,  5)
     0.1533E-02    0.8053E-03    0.4464E-03    0.2319E-03    0.1181E-03
  (  1,  3,  5) (  1,  3,  5) (  1,  3,  5) (  1,  3,  5) (  1,  3,  5)


 NO OUTPUT CONTROL FOR STRESS PERIOD    6   TIME STEP  13
 
 SOLVING FOR HEAD 
    10 ITERATIONS FOR TIME STEP  14 IN STRESS PERIOD    6

 MAXIMUM HEAD CHANGE FOR EACH ITERATION:

    HEAD CHANGE   HEAD CHANGE   HEAD CHANGE   HEAD CHANGE   HEAD CHANGE
  LAYER,ROW,COL LAYER,ROW,COL LAYER,ROW,COL LAYER,ROW,COL LAYER,ROW,COL
 ----------------------------------------------------------------------
     0.7789E-01    0.2605E-01    0.1036E-01    0.5337E-02    0.2693E-02
  (  1,  8,  4) (  1,  8,  4) (  1,  3,  5) (  1,  3,  5) (  1,  3,  5)
     0.1395E-02    0.7443E-03    0.3844E-03    0.2304E-03    0.1240E-03
  (  1,  3,  5) (  1,  3,  5) (  1,  3,  6) (  1,  3,  5) (  1,  3,  5)


 NO OUTPUT CONTROL FOR STRESS PERIOD    6   TIME STEP  14
 
 SOLVING FOR HEAD 
    12 ITERATIONS FOR TIME STEP  15 IN STRESS PERIOD    6

 MAXIMUM HEAD CHANGE FOR EACH ITERATION:

    HEAD CHANGE   HEAD CHANGE   HEAD CHANGE   HEAD CHANGE   HEAD CHANGE
  LAYER,ROW,COL LAYER,ROW,COL LAYER,ROW,COL LAYER,ROW,COL LAYER,ROW,COL
 ----------------------------------------------------------------------
     0.1386        0.7761E-01    0.4342E-01    0.2428E-01    0.1348E-01
  (  1,  2,  6) (  1,  2,  6) (  1,  2,  6) (  1,  2,  6) (  1,  2,  6)
     0.7441E-02    0.4104E-02    0.2273E-02    0.1229E-02    0.7300E-03
  (  1,  2,  6) (  1,  2,  6) (  1,  2,  6) (  1,  2,  6) (  1,  2,  6)
     0.4362E-03    0.1846E-03
  (  1,  2,  6) (  1,  2,  6)


 OUTPUT CONTROL FOR STRESS PERIOD    6   TIME STEP  15
    PRINT BUDGET
    PRINT HEAD FOR ALL LAYERS
    SAVE HEAD FOR ALL LAYERS
    SAVE BUDGET

  HEAD DEP BOUNDS   PERIOD    6   STEP  15
 BOUNDARY      1   LAYER   1   ROW    13   COL     1   RATE   -0.264313    
 BOUNDARY      2   LAYER   1   ROW    14   COL     9   RATE    0.208986    
 UBDSV3 SAVING "           GW ET" ON UNIT  61 AT TIME STEP 15, STRESS PERIOD   6
 UBDSV3 SAVING "    UZF INFILTR." ON UNIT  61 AT TIME STEP 15, STRESS PERIOD   6
 UBDSV3 SAVING "    UZF RECHARGE" ON UNIT  61 AT TIME STEP 15, STRESS PERIOD   6
 UBDSV3 SAVING " SURFACE LEAKAGE" ON UNIT  61 AT TIME STEP 15, STRESS PERIOD   6


UNSATURATED ZONE PACKAGE VOLUMETRIC BUDGET FOR  TIME STEP   15 STRESS PERIOD    6
  ------------------------------------------------------------------------------



     CUMULATIVE VOLUMES      L**3       RATES FOR THIS TIME STEP      L**3/T
     ------------------                 ------------------------

           IN:                                      IN:
           ---                                      ---
        INFILTRATION =  1202704102.0260          INFILTRATION =          84.7500

          OUT:                                     OUT:
          ----                                     ----
              UZF ET =  1257441189.3602                UZF ET =          67.6010
        UZF RECHARGE =   214623363.8892          UZF RECHARGE =          18.8406

            IN - OUT =  -269360451.2234              IN - OUT =          -1.6916

          STORAGE:                                 STORAGE:
          --------                                 --------
      STORAGE CHANGE =  -269175729.4647        STORAGE CHANGE =          -1.6604

 PERCENT DISCREPANCY IS DIFFERENCE BETWEEN IN-OUT MINUS CHANGE IN STORAGE
 DIVIDED BY THE AVERAGE OF IN AND OUT TIMES 100

 PERCENT DISCREPANCY =           0.00     PERCENT DISCREPANCY =          -0.04









 STREAM LISTING     PERIOD      6   STEP       15

 LAYER ROW COL. STREAM  RCH.  FLOW INTO     FLOW TO   FLOW OUT OF   OVRLND.     DIRECT     STREAM       STREAM     STREAM     STREAM   STREAMBED  STREAMBED
                SEG.NO.  NO.  STRM. RCH.    AQUIFER    STRM. RCH.    RUNOFF     PRECIP       ET          HEAD       DEPTH      WIDTH   CONDCTNC.   GRADIENT

   1    1    1     1     1    2.5000E+01  1.0321E+00   2.3968E+01  0.000E+00  0.000E+00  0.000E+00  1.09422E+03  1.172E+00  1.296E+01  5.832E-01  5.900E-01
   1    2    2     1     2    2.3968E+01  3.0617E+00   2.0906E+01  0.000E+00  0.000E+00  0.000E+00  1.08920E+03  1.141E+00  1.254E+01  8.775E-01  1.163E+00
   1    3    3     1     3    2.0906E+01  2.9053E+00   1.8001E+01  0.000E+00  0.000E+00  0.000E+00  1.08351E+03  1.091E+00  1.184E+01  7.101E-01  1.364E+00
   1    3    4     1     4    1.8001E+01  2.4679E+00   1.5533E+01  0.000E+00  0.000E+00  0.000E+00  1.07845E+03  1.045E+00  1.099E+01  6.101E-01  1.348E+00
   1    4    5     2     1    5.5329E+00  2.6631E+00   2.8699E+00  0.000E+00  0.000E+00  0.000E+00  1.07235E+03  4.142E-01  1.200E+01  7.800E-01  1.138E+00
   1    5    6     2     2    2.8699E+00  1.9540E+00   9.1585E-01  0.000E+00  0.000E+00  0.000E+00  1.06677E+03  2.567E-01  1.200E+01  6.000E-01  1.086E+00
   1    6    6     2     3    9.1585E-01  9.1585E-01   0.0000E+00  0.000E+00  0.000E+00  0.000E+00  1.06180E+03  9.340E-03  1.200E+01  6.000E-01  1.003E+00
   1    7    6     2     4    0.0000E+00  0.0000E+00   0.0000E+00  0.000E+00  0.000E+00  0.000E+00  1.05708E+03  0.000E+00  1.200E+01  6.000E-01  1.000E+00
   1    8    6     2     5    0.0000E+00  0.0000E+00   0.0000E+00  0.000E+00  0.000E+00  0.000E+00  1.05236E+03  0.000E+00  1.200E+01  6.000E-01  1.000E+00
   1    3    5     3     1    1.0000E+01  2.5233E+00   7.4767E+00  0.000E+00  0.000E+00  0.000E+00  1.07555E+03  1.909E+00  9.636E+00  7.227E-01  1.746E+00
   1    3    6     3     2    7.4767E+00  1.2493E+00   6.2273E+00  0.000E+00  0.000E+00  0.000E+00  1.07264E+03  1.727E+00  8.909E+00  6.682E-01  9.349E-01
   1    3    7     3     3    6.2273E+00  5.3088E-01   5.6965E+00  0.000E+00  0.000E+00  0.000E+00  1.06987E+03  1.555E+00  8.218E+00  5.547E-01  4.785E-01
   1    4    8     3     4    5.6965E+00  1.5174E+00   4.1791E+00  0.000E+00  0.000E+00  0.000E+00  1.06682E+03  1.364E+00  7.455E+00  6.709E-01  1.131E+00
   1    5    8     3     5    4.1791E+00  1.5790E+00   2.6001E+00  0.000E+00  0.000E+00  0.000E+00  1.06362E+03  1.164E+00  6.655E+00  4.991E-01  1.582E+00
   1    6    8     3     6    2.6001E+00  5.5980E-01   2.0403E+00  0.000E+00  0.000E+00  0.000E+00  1.06158E+03  1.036E+00  6.145E+00  1.844E-01  1.518E+00
   1    5   10     4     1    1.0000E+01  9.0525E-01   9.0947E+00  0.000E+00  0.000E+00  0.000E+00  1.07835E+03  6.210E-01  1.000E+01  2.500E-01  1.207E+00
   1    5    9     4     2    9.0947E+00  1.7835E+00   7.3113E+00  0.000E+00  0.000E+00  0.000E+00  1.07148E+03  5.670E-01  1.000E+01  5.000E-01  1.189E+00
   1    6    8     4     3    7.3113E+00  1.2257E+00   6.0855E+00  0.000E+00  0.000E+00  0.000E+00  1.06368E+03  5.021E-01  1.000E+01  3.500E-01  1.167E+00
   1    6    8     5     1    8.1259E+00  1.0619E+00   7.0640E+00  0.000E+00  0.000E+00  0.000E+00  1.05861E+03  6.100E-01  1.283E+01  5.130E-01  6.899E-01
   1    7    7     5     2    7.0640E+00  1.9970E+00   5.0670E+00  0.000E+00  0.000E+00  0.000E+00  1.05406E+03  5.638E-01  1.121E+01  5.604E-01  1.188E+00
   1    8    7     5     3    5.0670E+00  1.1491E+00   3.9179E+00  0.000E+00  0.000E+00  0.000E+00  1.04976E+03  5.076E-01  9.360E+00  3.276E-01  1.169E+00
   1    8    6     5     4    3.9179E+00  7.0636E-01   3.2115E+00  0.000E+00  0.000E+00  0.000E+00  1.04672E+03  4.681E-01  8.147E+00  2.037E-01  1.156E+00
   1    9    6     6     1    3.2115E+00  1.9716E+00   1.2399E+00  0.000E+00  0.000E+00  0.000E+00  1.04301E+03  2.861E-01  1.200E+01  6.000E-01  1.095E+00
   1   10    7     6     2    1.2399E+00  1.2399E+00   0.0000E+00  0.000E+00  0.000E+00  0.000E+00  1.03823E+03  4.531E-02  1.200E+01  6.000E-01  1.015E+00
   1   11    7     6     3    0.0000E+00  0.0000E+00   0.0000E+00  0.000E+00  0.000E+00  0.000E+00  1.03364E+03  0.000E+00  1.200E+01  6.000E-01  1.000E+00
   1   12    7     6     4    0.0000E+00  0.0000E+00   0.0000E+00  0.000E+00  0.000E+00  0.000E+00  1.02909E+03  0.000E+00  1.200E+01  6.000E-01  2.913E-01
   1   13    7     6     5    0.0000E+00 -8.0166E-01   8.0166E-01  0.000E+00  0.000E+00  0.000E+00  1.02591E+03  0.000E+00  1.200E+01  2.400E-01 -1.113E+00
   1   14    9     7     1    1.5000E+02  2.0476E+00   1.4795E+02  0.000E+00  0.000E+00  0.000E+00  1.03987E+03  2.286E+00  5.529E+01  5.592E+00  1.221E-01
   1   13    8     7     2    1.4795E+02  3.0033E+00   1.4495E+02  0.000E+00  0.000E+00  0.000E+00  1.03477E+03  2.272E+00  5.523E+01  6.144E+00  1.629E-01
   1   13    7     7     3    1.4495E+02  2.3870E+00   1.4256E+02  0.000E+00  0.000E+00  0.000E+00  1.02968E+03  2.258E+00  5.516E+01  5.578E+00  1.426E-01
   1   13    6     8     1    1.4336E+02  6.9125E-01   1.4267E+02  0.000E+00  0.000E+00  0.000E+00  1.02464E+03  2.767E+00  4.012E+01  4.088E+00  5.636E-02
   1   13    5     8     2    1.4267E+02 -2.2300E+00   1.4490E+02  0.000E+00  0.000E+00  0.000E+00  1.01840E+03  2.773E+00  4.020E+01  4.097E+00 -1.814E-01
   1   13    4     8     3    1.4490E+02 -3.9829E+00   1.4889E+02  0.000E+00  0.000E+00  0.000E+00  1.01217E+03  2.795E+00  4.052E+01  4.130E+00 -3.215E-01
   1   13    3     8     4    1.4889E+02 -4.2638E+00   1.5315E+02  0.000E+00  0.000E+00  0.000E+00  1.00595E+03  2.824E+00  4.095E+01  4.173E+00 -3.406E-01
   1   13    2     8     5    1.5315E+02 -2.0797E+00   1.5523E+02  0.000E+00  0.000E+00  0.000E+00  9.99721E+02  2.846E+00  4.127E+01  4.205E+00 -1.648E-01
   1   13    1     8     6    1.5523E+02 -5.7053E-01   1.5580E+02  0.000E+00  0.000E+00  0.000E+00  9.94730E+02  2.855E+00  4.140E+01  2.531E+00 -7.513E-02



1
              HEAD IN LAYER   1 AT END OF TIME STEP  15 IN STRESS PERIOD    6
  ---------------------------------------------------------------------------

           1       2       3       4       5       6       7       8       9      10
 ...................................................................................
   1  1092.45 1088.68 6999.00 6999.00 6999.00 6999.00 6999.00 6999.00 6999.00 6999.00
   2  1089.14 1085.71 1079.19 6999.00 6999.00 1072.42 1071.24 1070.48 6999.00 6999.00
   3  6999.00 1077.42 1074.39 1070.29 1072.05 1070.77 1068.92 1068.15 6999.00 6999.00
   4  1067.83 1068.38 1066.68 1063.18 1062.10 1060.86 1061.65 1064.56 1063.82 6999.00
   5  1063.68 1061.29 1058.66 1056.66 1056.45 1057.13 1057.12 1059.35 1062.90 1065.34
   6  1059.00 1055.35 1052.20 1050.54 1050.92 1052.47 1053.97 1056.54 1059.38 1063.66
   7  1055.34 1049.68 1046.32 1044.84 1045.56 1047.47 1050.21 1052.70 1054.13 6999.00
   8  6999.00 1042.34 1040.26 1039.25 1040.26 1042.39 1044.48 1047.12 1049.14 6999.00
   9  6999.00 1035.39 1034.27 1033.93 1035.25 1037.52 1038.68 1040.63 1043.72 6999.00
  10  6999.00 1028.37 1028.35 1029.11 1030.65 1032.65 1034.31 1036.18 1039.99 1044.38
  11  6999.00 1019.63 1021.15 1024.45 1026.55 1028.77 1030.45 1032.79 1036.27 6999.00
  12  1001.18 1008.84 1014.04 1018.81 1022.46 1025.75 1028.22 1031.09 1034.86 6999.00
  13   994.96 1000.22 1006.97 1013.13 1018.94 1024.47 1029.25 1034.28 1036.43 6999.00
  14  6999.00 1005.82 1011.52 1016.24 1021.28 1026.08 1030.38 1035.31 1039.50 6999.00
  15  6999.00 6999.00 1018.84 1021.83 1025.57 1028.55 6999.00 6999.00 6999.00 6999.00

 HEAD WILL BE SAVED ON UNIT   58 AT END OF TIME STEP  15, STRESS PERIOD    6
1
  VOLUMETRIC BUDGET FOR ENTIRE MODEL AT END OF TIME STEP 15 IN STRESS PERIOD   6
  ------------------------------------------------------------------------------

     CUMULATIVE VOLUMES      L**3       RATES FOR THIS TIME STEP      L**3/T
     ------------------                 ------------------------

           IN:                                      IN:
           ---                                      ---
             STORAGE =    51415832.0000               STORAGE =           0.4095
       CONSTANT HEAD =           0.0000         CONSTANT HEAD =           0.0000
               WELLS =           0.0000                 WELLS =           0.0000
     HEAD DEP BOUNDS =     3293287.5000       HEAD DEP BOUNDS =           0.2090
        UZF RECHARGE =   214623328.0000          UZF RECHARGE =          18.8406
               GW ET =           0.0000                 GW ET =           0.0000
     SURFACE LEAKAGE =           0.0000       SURFACE LEAKAGE =           0.0000
      STREAM LEAKAGE =   681084928.0000        STREAM LEAKAGE =          43.1291

            TOTAL IN =   950417344.0000              TOTAL IN =          62.5882

          OUT:                                     OUT:
          ----                                     ----
             STORAGE =   234129152.0000               STORAGE =          30.1985
       CONSTANT HEAD =           0.0000         CONSTANT HEAD =           0.0000
               WELLS =   236519984.0000                 WELLS =           0.0000
     HEAD DEP BOUNDS =     4153977.7500       HEAD DEP BOUNDS =           0.2643
        UZF RECHARGE =           0.0000          UZF RECHARGE =           0.0000
               GW ET =   262436736.0000                 GW ET =          18.1583
     SURFACE LEAKAGE =           0.0000       SURFACE LEAKAGE =           0.0000
      STREAM LEAKAGE =   212728512.0000        STREAM LEAKAGE =          13.9286

           TOTAL OUT =   949968384.0000             TOTAL OUT =          62.5497

            IN - OUT =      448960.0000              IN - OUT =       3.8506E-02

 PERCENT DISCREPANCY =           0.05     PERCENT DISCREPANCY =           0.06






          TIME SUMMARY AT END OF TIME STEP  15 IN STRESS PERIOD    6
                    SECONDS     MINUTES      HOURS       DAYS        YEARS
                    -----------------------------------------------------------
   TIME STEP LENGTH 3.14103E+05  5235.0      87.251      3.6354     9.95332E-03
 STRESS PERIOD TIME 2.62800E+06  43800.      730.00      30.417     8.32763E-02
         TOTAL TIME 1.57680E+07 2.62800E+05  4380.0      182.50     0.49966    
1
1
                            STRESS PERIOD NO.    7, LENGTH =   2628000.    
                            -----------------------------------------------

                              NUMBER OF TIME STEPS =    15

                               MULTIPLIER FOR DELT =     1.100

                            INITIAL TIME STEP SIZE =   82713.07    

 WELL NO.  LAYER   ROW   COL   STRESS RATE         
 --------------------------------------------------
      1      1      6      4      -2.000    
      2      1      6      5      -2.000    
      3      1      7      4      -2.000    
      4      1      7      5      -2.000    
      5      1      8      4      -2.000    
      6      1      8      5      -2.000    
      7      1      9      4      -2.000    
      8      1      9      5      -2.000    
      9      1     10      4      -2.000    
     10      1     10      5      -2.000    

     10 WELLS

 REUSING NON-PARAMETER GHB CELLS FROM LAST STRESS PERIOD

      2 GHB CELLS

 REUSING STREAM SEGMENT DATA FROM LAST STRESS PERIOD



            AREAL INFILTRATION RATE
 READING ON UNIT   19 WITH FORMAT: (10F4.0)            

            1           2           3           4           5           6           7           8           9          10
 ........................................................................................................................
   1   3.0000E-09  6.0000E-09   0.000       0.000       0.000       0.000       0.000       0.000       0.000       0.000    
   2   6.0000E-09  3.0000E-09  6.0000E-09   0.000       0.000      2.4000E-08  2.4000E-08  1.5000E-08   0.000       0.000    
   3    0.000      1.5000E-08  3.0000E-09  3.0000E-09  2.4000E-08  2.4000E-08  1.5000E-08  1.5000E-08   0.000       0.000    
   4   2.4000E-08  1.5000E-08  3.0000E-09  3.0000E-09  3.0000E-09  3.0000E-09  3.0000E-09  3.0000E-09  6.0000E-09   0.000    
   5   2.4000E-08  1.5000E-08  3.0000E-09  3.0000E-09  3.0000E-09  3.0000E-09  3.0000E-09  3.0000E-09  3.0000E-09  3.0000E-09
   6   2.4000E-08  1.5000E-08  1.5000E-08  6.0000E-09  6.0000E-09  3.0000E-09  3.0000E-09  3.0000E-09  3.0000E-09  1.5000E-08
   7   2.4000E-08  1.5000E-08  1.5000E-08  6.0000E-09  6.0000E-09  3.0000E-09  3.0000E-09  6.0000E-09  6.0000E-09   0.000    
   8    0.000      1.5000E-08  1.5000E-08  6.0000E-09  6.0000E-09  3.0000E-09  3.0000E-09  6.0000E-09  1.5000E-08   0.000    
   9    0.000      1.5000E-08  1.5000E-08  6.0000E-09  6.0000E-09  3.0000E-09  3.0000E-09  6.0000E-09  1.5000E-08   0.000    
  10    0.000      1.5000E-08  1.5000E-08  6.0000E-09  6.0000E-09  3.0000E-09  3.0000E-09  6.0000E-09  1.5000E-08  2.4000E-08
  11    0.000      3.0000E-09  3.0000E-09  3.0000E-09  3.0000E-09  3.0000E-09  3.0000E-09  6.0000E-09  1.5000E-08   0.000    
  12   3.0000E-09  3.0000E-09  3.0000E-09  3.0000E-09  3.0000E-09  3.0000E-09  3.0000E-09  3.0000E-09  6.0000E-09   0.000    
  13   3.0000E-09  3.0000E-09  6.0000E-09  6.0000E-09  6.0000E-09  6.0000E-09  6.0000E-09  3.0000E-09  3.0000E-09   0.000    
  14    0.000      6.0000E-09  1.5000E-08  1.5000E-08  1.5000E-08  1.5000E-08  1.5000E-08  6.0000E-09  3.0000E-09   0.000    
  15    0.000       0.000      2.4000E-08  2.4000E-08  2.4000E-08  2.4000E-08   0.000       0.000       0.000       0.000    

USING ET RATE FROM PREVIOUS STRESS PERIOD. CURRENT PERIOD IS:       7

 USING ET EXTINCTION DEPTH FROM PREVIOUS STRESS PERIOD. CURRENT PERIOD IS:       7

 USING EXTINCTION WATER CONTENT FROM PREVIOUS STRESS PERIOD. CURRENT PERIOD IS:       7
 
 SOLVING FOR HEAD 

    10 ITERATIONS FOR TIME STEP   1 IN STRESS PERIOD    7

 MAXIMUM HEAD CHANGE FOR EACH ITERATION:

    HEAD CHANGE   HEAD CHANGE   HEAD CHANGE   HEAD CHANGE   HEAD CHANGE
  LAYER,ROW,COL LAYER,ROW,COL LAYER,ROW,COL LAYER,ROW,COL LAYER,ROW,COL
 ----------------------------------------------------------------------
     0.3320E-01    0.1844E-01    0.1028E-01    0.5712E-02    0.3203E-02
  (  1,  2,  7) (  1,  2,  7) (  1,  2,  7) (  1,  2,  7) (  1,  2,  7)
     0.1774E-02    0.9729E-03    0.5549E-03    0.3169E-03    0.1664E-03
  (  1,  2,  7) (  1,  2,  7) (  1,  2,  7) (  1,  2,  7) (  1,  2,  7)


 NO OUTPUT CONTROL FOR STRESS PERIOD    7   TIME STEP   1
 
 SOLVING FOR HEAD 
    10 ITERATIONS FOR TIME STEP   2 IN STRESS PERIOD    7

 MAXIMUM HEAD CHANGE FOR EACH ITERATION:

    HEAD CHANGE   HEAD CHANGE   HEAD CHANGE   HEAD CHANGE   HEAD CHANGE
  LAYER,ROW,COL LAYER,ROW,COL LAYER,ROW,COL LAYER,ROW,COL LAYER,ROW,COL
 ----------------------------------------------------------------------
     0.3819E-01    0.2117E-01    0.1171E-01    0.6475E-02    0.3560E-02
  (  1,  2,  7) (  1,  2,  7) (  1,  2,  7) (  1,  2,  7) (  1,  2,  7)
     0.2014E-02    0.1082E-02    0.6126E-03    0.3490E-03    0.1830E-03
  (  1,  2,  7) (  1,  2,  7) (  1,  2,  7) (  1,  2,  7) (  1,  2,  7)


 NO OUTPUT CONTROL FOR STRESS PERIOD    7   TIME STEP   2
 
 SOLVING FOR HEAD 
    10 ITERATIONS FOR TIME STEP   3 IN STRESS PERIOD    7

 MAXIMUM HEAD CHANGE FOR EACH ITERATION:

    HEAD CHANGE   HEAD CHANGE   HEAD CHANGE   HEAD CHANGE   HEAD CHANGE
  LAYER,ROW,COL LAYER,ROW,COL LAYER,ROW,COL LAYER,ROW,COL LAYER,ROW,COL
 ----------------------------------------------------------------------
     0.4107E-01    0.2260E-01    0.1243E-01    0.6843E-02    0.3796E-02
  (  1,  2,  7) (  1,  2,  7) (  1,  2,  7) (  1,  2,  7) (  1,  2,  7)
     0.2066E-02    0.1160E-02    0.6055E-03    0.3700E-03    0.1984E-03
  (  1,  2,  7) (  1,  2,  7) (  1,  2,  7) (  1,  2,  7) (  1,  2,  7)


 NO OUTPUT CONTROL FOR STRESS PERIOD    7   TIME STEP   3
 
 SOLVING FOR HEAD 
    11 ITERATIONS FOR TIME STEP   4 IN STRESS PERIOD    7

 MAXIMUM HEAD CHANGE FOR EACH ITERATION:

    HEAD CHANGE   HEAD CHANGE   HEAD CHANGE   HEAD CHANGE   HEAD CHANGE
  LAYER,ROW,COL LAYER,ROW,COL LAYER,ROW,COL LAYER,ROW,COL LAYER,ROW,COL
 ----------------------------------------------------------------------
     0.4313E-01    0.2341E-01    0.1276E-01    0.6933E-02    0.3714E-02
  (  1,  2,  7) (  1,  2,  7) (  1,  2,  7) (  1,  2,  7) (  1,  2,  7)
     0.2043E-02    0.1093E-02    0.6292E-03    0.3310E-03    0.2031E-03
  (  1,  2,  7) (  1,  2,  7) (  1,  2,  7) (  1,  2,  7) (  1,  2,  7)
     0.1091E-03
  (  1,  2,  7)


 NO OUTPUT CONTROL FOR STRESS PERIOD    7   TIME STEP   4
 
 SOLVING FOR HEAD 
    10 ITERATIONS FOR TIME STEP   5 IN STRESS PERIOD    7

 MAXIMUM HEAD CHANGE FOR EACH ITERATION:

    HEAD CHANGE   HEAD CHANGE   HEAD CHANGE   HEAD CHANGE   HEAD CHANGE
  LAYER,ROW,COL LAYER,ROW,COL LAYER,ROW,COL LAYER,ROW,COL LAYER,ROW,COL
 ----------------------------------------------------------------------
     0.4383E-01    0.2374E-01    0.1280E-01    0.6926E-02    0.3718E-02
  (  1,  2,  7) (  1,  2,  7) (  1,  2,  7) (  1,  2,  7) (  1,  2,  7)
     0.2023E-02    0.1157E-02    0.6077E-03    0.3471E-03    0.1447E-03
  (  1,  2,  7) (  1,  2,  7) (  1,  2,  7) (  1,  2,  7) (  1,  2,  7)


 OUTPUT CONTROL FOR STRESS PERIOD    7   TIME STEP   5
    PRINT BUDGET
    SAVE BUDGET

            WELLS   PERIOD    7   STEP   5
 WELL      1   LAYER   1   ROW     6   COL     4   RATE    -2.00000    
 WELL      2   LAYER   1   ROW     6   COL     5   RATE    -2.00000    
 WELL      3   LAYER   1   ROW     7   COL     4   RATE    -2.00000    
 WELL      4   LAYER   1   ROW     7   COL     5   RATE    -2.00000    
 WELL      5   LAYER   1   ROW     8   COL     4   RATE    -2.00000    
 WELL      6   LAYER   1   ROW     8   COL     5   RATE    -2.00000    
 WELL      7   LAYER   1   ROW     9   COL     4   RATE    -2.00000    
 WELL      8   LAYER   1   ROW     9   COL     5   RATE    -2.00000    
 WELL      9   LAYER   1   ROW    10   COL     4   RATE    -2.00000    
 WELL     10   LAYER   1   ROW    10   COL     5   RATE    -2.00000    

  HEAD DEP BOUNDS   PERIOD    7   STEP   5
 BOUNDARY      1   LAYER   1   ROW    13   COL     1   RATE   -0.264087    
 BOUNDARY      2   LAYER   1   ROW    14   COL     9   RATE    0.208975    
 UBDSV3 SAVING "           GW ET" ON UNIT  61 AT TIME STEP  5, STRESS PERIOD   7
 UBDSV3 SAVING "    UZF INFILTR." ON UNIT  61 AT TIME STEP  5, STRESS PERIOD   7
 UBDSV3 SAVING "    UZF RECHARGE" ON UNIT  61 AT TIME STEP  5, STRESS PERIOD   7
 UBDSV3 SAVING " SURFACE LEAKAGE" ON UNIT  61 AT TIME STEP  5, STRESS PERIOD   7


UNSATURATED ZONE PACKAGE VOLUMETRIC BUDGET FOR  TIME STEP    5 STRESS PERIOD    7
  ------------------------------------------------------------------------------



     CUMULATIVE VOLUMES      L**3       RATES FOR THIS TIME STEP      L**3/T
     ------------------                 ------------------------

           IN:                                      IN:
           ---                                      ---
        INFILTRATION =  1215543004.4918          INFILTRATION =          25.4250

          OUT:                                     OUT:
          ----                                     ----
              UZF ET =  1291837691.5300                UZF ET =          68.3459
        UZF RECHARGE =   223375029.7657          UZF RECHARGE =          16.9804

            IN - OUT =  -299669716.8039              IN - OUT =         -59.9013

          STORAGE:                                 STORAGE:
          --------                                 --------
      STORAGE CHANGE =  -299483856.5100        STORAGE CHANGE =         -59.8965

 PERCENT DISCREPANCY IS DIFFERENCE BETWEEN IN-OUT MINUS CHANGE IN STORAGE
 DIVIDED BY THE AVERAGE OF IN AND OUT TIMES 100

 PERCENT DISCREPANCY =           0.00     PERCENT DISCREPANCY =          -0.01









 STREAM LISTING     PERIOD      7   STEP        5

 LAYER ROW COL. STREAM  RCH.  FLOW INTO     FLOW TO   FLOW OUT OF   OVRLND.     DIRECT     STREAM       STREAM     STREAM     STREAM   STREAMBED  STREAMBED
                SEG.NO.  NO.  STRM. RCH.    AQUIFER    STRM. RCH.    RUNOFF     PRECIP       ET          HEAD       DEPTH      WIDTH   CONDCTNC.   GRADIENT

   1    1    1     1     1    2.5000E+01  1.0350E+00   2.3965E+01  0.000E+00  0.000E+00  0.000E+00  1.09422E+03  1.172E+00  1.296E+01  5.832E-01  5.916E-01
   1    2    2     1     2    2.3965E+01  3.0632E+00   2.0902E+01  0.000E+00  0.000E+00  0.000E+00  1.08920E+03  1.141E+00  1.254E+01  8.775E-01  1.164E+00
   1    3    3     1     3    2.0902E+01  2.9050E+00   1.7997E+01  0.000E+00  0.000E+00  0.000E+00  1.08351E+03  1.091E+00  1.183E+01  7.101E-01  1.364E+00
   1    3    4     1     4    1.7997E+01  2.4676E+00   1.5529E+01  0.000E+00  0.000E+00  0.000E+00  1.07845E+03  1.045E+00  1.099E+01  6.100E-01  1.348E+00
   1    4    5     2     1    5.5293E+00  2.6629E+00   2.8664E+00  0.000E+00  0.000E+00  0.000E+00  1.07235E+03  4.140E-01  1.200E+01  7.800E-01  1.138E+00
   1    5    6     2     2    2.8664E+00  1.9538E+00   9.1253E-01  0.000E+00  0.000E+00  0.000E+00  1.06677E+03  2.564E-01  1.200E+01  6.000E-01  1.085E+00
   1    6    6     2     3    9.1253E-01  9.1253E-01   0.0000E+00  0.000E+00  0.000E+00  0.000E+00  1.06180E+03  9.320E-03  1.200E+01  6.000E-01  1.003E+00
   1    7    6     2     4    0.0000E+00  0.0000E+00   0.0000E+00  0.000E+00  0.000E+00  0.000E+00  1.05708E+03  0.000E+00  1.200E+01  6.000E-01  1.000E+00
   1    8    6     2     5    0.0000E+00  0.0000E+00   0.0000E+00  0.000E+00  0.000E+00  0.000E+00  1.05236E+03  0.000E+00  1.200E+01  6.000E-01  1.000E+00
   1    3    5     3     1    1.0000E+01  2.4604E+00   7.5396E+00  0.000E+00  0.000E+00  0.000E+00  1.07555E+03  1.909E+00  9.636E+00  7.227E-01  1.702E+00
   1    3    6     3     2    7.5396E+00  1.1889E+00   6.3507E+00  0.000E+00  0.000E+00  0.000E+00  1.07264E+03  1.727E+00  8.909E+00  6.682E-01  8.896E-01
   1    3    7     3     3    6.3507E+00  5.0023E-01   5.8505E+00  0.000E+00  0.000E+00  0.000E+00  1.06987E+03  1.555E+00  8.218E+00  5.547E-01  4.509E-01
   1    4    8     3     4    5.8505E+00  1.5135E+00   4.3370E+00  0.000E+00  0.000E+00  0.000E+00  1.06682E+03  1.364E+00  7.455E+00  6.709E-01  1.128E+00
   1    5    8     3     5    4.3370E+00  1.5790E+00   2.7580E+00  0.000E+00  0.000E+00  0.000E+00  1.06362E+03  1.164E+00  6.655E+00  4.991E-01  1.582E+00
   1    6    8     3     6    2.7580E+00  5.5980E-01   2.1982E+00  0.000E+00  0.000E+00  0.000E+00  1.06158E+03  1.036E+00  6.145E+00  1.844E-01  1.518E+00
   1    5   10     4     1    1.0000E+01  9.0525E-01   9.0947E+00  0.000E+00  0.000E+00  0.000E+00  1.07835E+03  6.210E-01  1.000E+01  2.500E-01  1.207E+00
   1    5    9     4     2    9.0947E+00  1.7835E+00   7.3113E+00  0.000E+00  0.000E+00  0.000E+00  1.07148E+03  5.670E-01  1.000E+01  5.000E-01  1.189E+00
   1    6    8     4     3    7.3113E+00  1.2257E+00   6.0855E+00  0.000E+00  0.000E+00  0.000E+00  1.06368E+03  5.021E-01  1.000E+01  3.500E-01  1.167E+00
   1    6    8     5     1    8.2838E+00  1.0719E+00   7.2118E+00  0.000E+00  0.000E+00  0.000E+00  1.05861E+03  6.142E-01  1.298E+01  5.192E-01  6.882E-01
   1    7    7     5     2    7.2118E+00  2.0257E+00   5.1861E+00  0.000E+00  0.000E+00  0.000E+00  1.05407E+03  5.681E-01  1.135E+01  5.677E-01  1.189E+00
   1    8    7     5     3    5.1861E+00  1.1673E+00   4.0188E+00  0.000E+00  0.000E+00  0.000E+00  1.04976E+03  5.119E-01  9.497E+00  3.324E-01  1.171E+00
   1    8    6     5     4    4.0188E+00  7.1847E-01   3.3003E+00  0.000E+00  0.000E+00  0.000E+00  1.04672E+03  4.724E-01  8.276E+00  2.069E-01  1.157E+00
   1    9    6     6     1    3.3003E+00  1.9756E+00   1.3247E+00  0.000E+00  0.000E+00  0.000E+00  1.04302E+03  2.927E-01  1.200E+01  6.000E-01  1.098E+00
   1   10    7     6     2    1.3247E+00  1.3247E+00   0.0000E+00  0.000E+00  0.000E+00  0.000E+00  1.03823E+03  4.714E-02  1.200E+01  6.000E-01  1.016E+00
   1   11    7     6     3    0.0000E+00  0.0000E+00   0.0000E+00  0.000E+00  0.000E+00  0.000E+00  1.03364E+03  0.000E+00  1.200E+01  6.000E-01  1.000E+00
   1   12    7     6     4    0.0000E+00  0.0000E+00   0.0000E+00  0.000E+00  0.000E+00  0.000E+00  1.02909E+03  0.000E+00  1.200E+01  6.000E-01  2.906E-01
   1   13    7     6     5    0.0000E+00 -8.0103E-01   8.0103E-01  0.000E+00  0.000E+00  0.000E+00  1.02591E+03  0.000E+00  1.200E+01  2.400E-01 -1.113E+00
   1   14    9     7     1    1.5000E+02  2.0459E+00   1.4795E+02  0.000E+00  0.000E+00  0.000E+00  1.03987E+03  2.286E+00  5.529E+01  5.592E+00  1.220E-01
   1   13    8     7     2    1.4795E+02  3.0041E+00   1.4495E+02  0.000E+00  0.000E+00  0.000E+00  1.03477E+03  2.272E+00  5.523E+01  6.144E+00  1.630E-01
   1   13    7     7     3    1.4495E+02  2.4015E+00   1.4255E+02  0.000E+00  0.000E+00  0.000E+00  1.02968E+03  2.258E+00  5.516E+01  5.578E+00  1.435E-01
   1   13    6     8     1    1.4335E+02  6.6419E-01   1.4269E+02  0.000E+00  0.000E+00  0.000E+00  1.02464E+03  2.767E+00  4.012E+01  4.088E+00  5.415E-02
   1   13    5     8     2    1.4269E+02 -2.2358E+00   1.4492E+02  0.000E+00  0.000E+00  0.000E+00  1.01840E+03  2.773E+00  4.020E+01  4.097E+00 -1.819E-01
   1   13    4     8     3    1.4492E+02 -3.9735E+00   1.4889E+02  0.000E+00  0.000E+00  0.000E+00  1.01217E+03  2.795E+00  4.053E+01  4.130E+00 -3.207E-01
   1   13    3     8     4    1.4889E+02 -4.2703E+00   1.5316E+02  0.000E+00  0.000E+00  0.000E+00  1.00595E+03  2.824E+00  4.095E+01  4.173E+00 -3.411E-01
   1   13    2     8     5    1.5316E+02 -2.0814E+00   1.5525E+02  0.000E+00  0.000E+00  0.000E+00  9.99721E+02  2.846E+00  4.127E+01  4.206E+00 -1.650E-01
   1   13    1     8     6    1.5525E+02 -5.5531E-01   1.5580E+02  0.000E+00  0.000E+00  0.000E+00  9.94730E+02  2.855E+00  4.140E+01  2.531E+00 -7.312E-02



1
  VOLUMETRIC BUDGET FOR ENTIRE MODEL AT END OF TIME STEP  5 IN STRESS PERIOD   7
  ------------------------------------------------------------------------------

     CUMULATIVE VOLUMES      L**3       RATES FOR THIS TIME STEP      L**3/T
     ------------------                 ------------------------

           IN:                                      IN:
           ---                                      ---
             STORAGE =    54593292.0000               STORAGE =           5.9550
       CONSTANT HEAD =           0.0000         CONSTANT HEAD =           0.0000
               WELLS =           0.0000                 WELLS =           0.0000
     HEAD DEP BOUNDS =     3398816.2500       HEAD DEP BOUNDS =           0.2090
        UZF RECHARGE =   223375008.0000          UZF RECHARGE =          16.9804
               GW ET =           0.0000                 GW ET =           0.0000
     SURFACE LEAKAGE =           0.0000       SURFACE LEAKAGE =           0.0000
      STREAM LEAKAGE =   702866304.0000        STREAM LEAKAGE =          43.1157

            TOTAL IN =   984233408.0000              TOTAL IN =          66.2601

          OUT:                                     OUT:
          ----                                     ----
             STORAGE =   241460320.0000               STORAGE =          13.8437
       CONSTANT HEAD =           0.0000         CONSTANT HEAD =           0.0000
               WELLS =   246619408.0000                 WELLS =          20.0000
     HEAD DEP BOUNDS =     4287376.5000       HEAD DEP BOUNDS =           0.2641
        UZF RECHARGE =           0.0000          UZF RECHARGE =           0.0000
               GW ET =   271609536.0000                 GW ET =          18.1694
     SURFACE LEAKAGE =           0.0000       SURFACE LEAKAGE =           0.0000
      STREAM LEAKAGE =   219761968.0000        STREAM LEAKAGE =          13.9173

           TOTAL OUT =   983738624.0000             TOTAL OUT =          66.1945

            IN - OUT =      494784.0000              IN - OUT =       6.5559E-02

 PERCENT DISCREPANCY =           0.05     PERCENT DISCREPANCY =           0.10






          TIME SUMMARY AT END OF TIME STEP   5 IN STRESS PERIOD    7
                    SECONDS     MINUTES      HOURS       DAYS        YEARS
                    -----------------------------------------------------------
   TIME STEP LENGTH 1.21100E+05  2018.3      33.639      1.4016     3.83743E-03
 STRESS PERIOD TIME 5.04972E+05  8416.2      140.27      5.8446     1.60016E-02
         TOTAL TIME 1.62730E+07 2.71216E+05  4520.3      188.34     0.51566    
1
 
 SOLVING FOR HEAD 
    11 ITERATIONS FOR TIME STEP   6 IN STRESS PERIOD    7

 MAXIMUM HEAD CHANGE FOR EACH ITERATION:

    HEAD CHANGE   HEAD CHANGE   HEAD CHANGE   HEAD CHANGE   HEAD CHANGE
  LAYER,ROW,COL LAYER,ROW,COL LAYER,ROW,COL LAYER,ROW,COL LAYER,ROW,COL
 ----------------------------------------------------------------------
     0.4634E-01    0.2499E-01    0.1344E-01    0.7238E-02    0.3929E-02
  (  1,  2,  7) (  1,  2,  7) (  1,  2,  7) (  1,  2,  7) (  1,  2,  7)
     0.2110E-02    0.1084E-02    0.6305E-03    0.2916E-03    0.2236E-03
  (  1,  2,  7) (  1,  2,  7) (  1,  2,  7) (  1,  2,  7) (  1,  2,  7)
     0.1101E-03
  (  1,  2,  6)


 NO OUTPUT CONTROL FOR STRESS PERIOD    7   TIME STEP   6
 
 SOLVING FOR HEAD 
    10 ITERATIONS FOR TIME STEP   7 IN STRESS PERIOD    7

 MAXIMUM HEAD CHANGE FOR EACH ITERATION:

    HEAD CHANGE   HEAD CHANGE   HEAD CHANGE   HEAD CHANGE   HEAD CHANGE
  LAYER,ROW,COL LAYER,ROW,COL LAYER,ROW,COL LAYER,ROW,COL LAYER,ROW,COL
 ----------------------------------------------------------------------
     0.4757E-01    0.2525E-01    0.1342E-01    0.7142E-02    0.3794E-02
  (  1,  2,  7) (  1,  2,  7) (  1,  2,  7) (  1,  2,  7) (  1,  2,  7)
     0.2032E-02    0.1043E-02    0.5722E-03    0.2963E-03    0.1502E-03
  (  1,  2,  7) (  1,  2,  7) (  1,  2,  7) (  1,  2,  7) (  1,  2,  7)


 NO OUTPUT CONTROL FOR STRESS PERIOD    7   TIME STEP   7
 
 SOLVING FOR HEAD 
    10 ITERATIONS FOR TIME STEP   8 IN STRESS PERIOD    7

 MAXIMUM HEAD CHANGE FOR EACH ITERATION:

    HEAD CHANGE   HEAD CHANGE   HEAD CHANGE   HEAD CHANGE   HEAD CHANGE
  LAYER,ROW,COL LAYER,ROW,COL LAYER,ROW,COL LAYER,ROW,COL LAYER,ROW,COL
 ----------------------------------------------------------------------
     0.4818E-01    0.2544E-01    0.1339E-01    0.7077E-02    0.3815E-02
  (  1,  2,  7) (  1,  2,  7) (  1,  2,  7) (  1,  2,  7) (  1,  2,  7)
     0.1963E-02    0.9925E-03    0.5981E-03    0.3197E-03    0.1639E-03
  (  1,  2,  7) (  1,  2,  7) (  1,  2,  7) (  1,  2,  7) (  1,  2,  7)


 NO OUTPUT CONTROL FOR STRESS PERIOD    7   TIME STEP   8
 
 SOLVING FOR HEAD 
    10 ITERATIONS FOR TIME STEP   9 IN STRESS PERIOD    7

 MAXIMUM HEAD CHANGE FOR EACH ITERATION:

    HEAD CHANGE   HEAD CHANGE   HEAD CHANGE   HEAD CHANGE   HEAD CHANGE
  LAYER,ROW,COL LAYER,ROW,COL LAYER,ROW,COL LAYER,ROW,COL LAYER,ROW,COL
 ----------------------------------------------------------------------
     0.5022E-01    0.2652E-01    0.1398E-01    0.7354E-02    0.3832E-02
  (  1,  2,  7) (  1,  2,  7) (  1,  2,  7) (  1,  2,  7) (  1,  2,  7)
     0.2029E-02    0.1065E-02    0.5423E-03    0.2733E-03    0.1643E-03
  (  1,  2,  7) (  1,  2,  7) (  1,  2,  7) (  1,  2,  7) (  1,  2,  7)


 NO OUTPUT CONTROL FOR STRESS PERIOD    7   TIME STEP   9
 
 SOLVING FOR HEAD 
    10 ITERATIONS FOR TIME STEP  10 IN STRESS PERIOD    7

 MAXIMUM HEAD CHANGE FOR EACH ITERATION:

    HEAD CHANGE   HEAD CHANGE   HEAD CHANGE   HEAD CHANGE   HEAD CHANGE
  LAYER,ROW,COL LAYER,ROW,COL LAYER,ROW,COL LAYER,ROW,COL LAYER,ROW,COL
 ----------------------------------------------------------------------
     0.4923E-01    0.2541E-01    0.1311E-01    0.6783E-02    0.3469E-02
  (  1,  2,  7) (  1,  2,  7) (  1,  2,  7) (  1,  2,  7) (  1,  2,  7)
     0.1840E-02    0.9109E-03    0.4841E-03    0.2778E-03    0.1159E-03
  (  1,  2,  7) (  1,  2,  7) (  1,  2,  7) (  1,  2,  7) (  1,  2,  7)


 OUTPUT CONTROL FOR STRESS PERIOD    7   TIME STEP  10
    PRINT BUDGET
    SAVE BUDGET

            WELLS   PERIOD    7   STEP  10
 WELL      1   LAYER   1   ROW     6   COL     4   RATE    -2.00000    
 WELL      2   LAYER   1   ROW     6   COL     5   RATE    -2.00000    
 WELL      3   LAYER   1   ROW     7   COL     4   RATE    -2.00000    
 WELL      4   LAYER   1   ROW     7   COL     5   RATE    -2.00000    
 WELL      5   LAYER   1   ROW     8   COL     4   RATE    -2.00000    
 WELL      6   LAYER   1   ROW     8   COL     5   RATE    -2.00000    
 WELL      7   LAYER   1   ROW     9   COL     4   RATE    -2.00000    
 WELL      8   LAYER   1   ROW     9   COL     5   RATE    -2.00000    
 WELL      9   LAYER   1   ROW    10   COL     4   RATE    -2.00000    
 WELL     10   LAYER   1   ROW    10   COL     5   RATE    -2.00000    

  HEAD DEP BOUNDS   PERIOD    7   STEP  10
 BOUNDARY      1   LAYER   1   ROW    13   COL     1   RATE   -0.263789    
 BOUNDARY      2   LAYER   1   ROW    14   COL     9   RATE    0.208967    
 UBDSV3 SAVING "           GW ET" ON UNIT  61 AT TIME STEP 10, STRESS PERIOD   7
 UBDSV3 SAVING "    UZF INFILTR." ON UNIT  61 AT TIME STEP 10, STRESS PERIOD   7
 UBDSV3 SAVING "    UZF RECHARGE" ON UNIT  61 AT TIME STEP 10, STRESS PERIOD   7
 UBDSV3 SAVING " SURFACE LEAKAGE" ON UNIT  61 AT TIME STEP 10, STRESS PERIOD   7


UNSATURATED ZONE PACKAGE VOLUMETRIC BUDGET FOR  TIME STEP   10 STRESS PERIOD    7
  ------------------------------------------------------------------------------



     CUMULATIVE VOLUMES      L**3       RATES FOR THIS TIME STEP      L**3/T
     ------------------                 ------------------------

           IN:                                      IN:
           ---                                      ---
        INFILTRATION =  1236220186.3002          INFILTRATION =          25.4250

          OUT:                                     OUT:
          ----                                     ----
              UZF ET =  1347796967.5194                UZF ET =          69.0802
        UZF RECHARGE =   235301085.0147          UZF RECHARGE =          12.4883

            IN - OUT =  -346877866.2339              IN - OUT =         -56.1435

          STORAGE:                                 STORAGE:
          --------                                 --------
      STORAGE CHANGE =  -346688592.1353        STORAGE CHANGE =         -56.1426

 PERCENT DISCREPANCY IS DIFFERENCE BETWEEN IN-OUT MINUS CHANGE IN STORAGE
 DIVIDED BY THE AVERAGE OF IN AND OUT TIMES 100

 PERCENT DISCREPANCY =           0.00     PERCENT DISCREPANCY =           0.00









 STREAM LISTING     PERIOD      7   STEP       10

 LAYER ROW COL. STREAM  RCH.  FLOW INTO     FLOW TO   FLOW OUT OF   OVRLND.     DIRECT     STREAM       STREAM     STREAM     STREAM   STREAMBED  STREAMBED
                SEG.NO.  NO.  STRM. RCH.    AQUIFER    STRM. RCH.    RUNOFF     PRECIP       ET          HEAD       DEPTH      WIDTH   CONDCTNC.   GRADIENT

   1    1    1     1     1    2.5000E+01  1.0390E+00   2.3961E+01  0.000E+00  0.000E+00  0.000E+00  1.09422E+03  1.172E+00  1.296E+01  5.831E-01  5.939E-01
   1    2    2     1     2    2.3961E+01  3.0646E+00   2.0896E+01  0.000E+00  0.000E+00  0.000E+00  1.08920E+03  1.140E+00  1.253E+01  8.774E-01  1.164E+00
   1    3    3     1     3    2.0896E+01  2.9045E+00   1.7992E+01  0.000E+00  0.000E+00  0.000E+00  1.08351E+03  1.091E+00  1.183E+01  7.100E-01  1.364E+00
   1    3    4     1     4    1.7992E+01  2.4672E+00   1.5525E+01  0.000E+00  0.000E+00  0.000E+00  1.07845E+03  1.045E+00  1.099E+01  6.099E-01  1.348E+00
   1    4    5     2     1    5.5247E+00  2.6627E+00   2.8620E+00  0.000E+00  0.000E+00  0.000E+00  1.07235E+03  4.137E-01  1.200E+01  7.800E-01  1.138E+00
   1    5    6     2     2    2.8620E+00  1.9536E+00   9.0840E-01  0.000E+00  0.000E+00  0.000E+00  1.06677E+03  2.561E-01  1.200E+01  6.000E-01  1.085E+00
   1    6    6     2     3    9.0840E-01  9.0840E-01   0.0000E+00  0.000E+00  0.000E+00  0.000E+00  1.06183E+03  3.718E-02  1.200E+01  6.000E-01  1.012E+00
   1    7    6     2     4    0.0000E+00  0.0000E+00   0.0000E+00  0.000E+00  0.000E+00  0.000E+00  1.05708E+03  0.000E+00  1.200E+01  6.000E-01  1.000E+00
   1    8    6     2     5    0.0000E+00  0.0000E+00   0.0000E+00  0.000E+00  0.000E+00  0.000E+00  1.05236E+03  0.000E+00  1.200E+01  6.000E-01  1.000E+00
   1    3    5     3     1    1.0000E+01  2.4407E+00   7.5593E+00  0.000E+00  0.000E+00  0.000E+00  1.07555E+03  1.909E+00  9.636E+00  7.227E-01  1.689E+00
   1    3    6     3     2    7.5593E+00  1.2002E+00   6.3591E+00  0.000E+00  0.000E+00  0.000E+00  1.07264E+03  1.727E+00  8.909E+00  6.682E-01  8.981E-01
   1    3    7     3     3    6.3591E+00  4.8712E-01   5.8720E+00  0.000E+00  0.000E+00  0.000E+00  1.06987E+03  1.555E+00  8.218E+00  5.547E-01  4.391E-01
   1    4    8     3     4    5.8720E+00  1.5079E+00   4.3642E+00  0.000E+00  0.000E+00  0.000E+00  1.06682E+03  1.364E+00  7.455E+00  6.709E-01  1.124E+00
   1    5    8     3     5    4.3642E+00  1.5790E+00   2.7852E+00  0.000E+00  0.000E+00  0.000E+00  1.06362E+03  1.164E+00  6.655E+00  4.991E-01  1.582E+00
   1    6    8     3     6    2.7852E+00  5.5980E-01   2.2254E+00  0.000E+00  0.000E+00  0.000E+00  1.06158E+03  1.036E+00  6.145E+00  1.844E-01  1.518E+00
   1    5   10     4     1    1.0000E+01  9.0525E-01   9.0947E+00  0.000E+00  0.000E+00  0.000E+00  1.07835E+03  6.210E-01  1.000E+01  2.500E-01  1.207E+00
   1    5    9     4     2    9.0947E+00  1.7835E+00   7.3113E+00  0.000E+00  0.000E+00  0.000E+00  1.07148E+03  5.670E-01  1.000E+01  5.000E-01  1.189E+00
   1    6    8     4     3    7.3113E+00  1.2257E+00   6.0855E+00  0.000E+00  0.000E+00  0.000E+00  1.06368E+03  5.021E-01  1.000E+01  3.500E-01  1.167E+00
   1    6    8     5     1    8.3110E+00  1.0657E+00   7.2452E+00  0.000E+00  0.000E+00  0.000E+00  1.05862E+03  6.151E-01  1.301E+01  5.204E-01  6.826E-01
   1    7    7     5     2    7.2452E+00  2.0322E+00   5.2130E+00  0.000E+00  0.000E+00  0.000E+00  1.05407E+03  5.691E-01  1.139E+01  5.694E-01  1.190E+00
   1    8    7     5     3    5.2130E+00  1.1714E+00   4.0416E+00  0.000E+00  0.000E+00  0.000E+00  1.04976E+03  5.128E-01  9.528E+00  3.335E-01  1.171E+00
   1    8    6     5     4    4.0416E+00  7.2120E-01   3.3204E+00  0.000E+00  0.000E+00  0.000E+00  1.04672E+03  4.734E-01  8.305E+00  2.076E-01  1.158E+00
   1    9    6     6     1    3.3204E+00  1.9765E+00   1.3439E+00  0.000E+00  0.000E+00  0.000E+00  1.04302E+03  2.942E-01  1.200E+01  6.000E-01  1.098E+00
   1   10    7     6     2    1.3439E+00  1.3439E+00   0.0000E+00  0.000E+00  0.000E+00  0.000E+00  1.03823E+03  4.755E-02  1.200E+01  6.000E-01  1.016E+00
   1   11    7     6     3    0.0000E+00  0.0000E+00   0.0000E+00  0.000E+00  0.000E+00  0.000E+00  1.03364E+03  0.000E+00  1.200E+01  6.000E-01  1.000E+00
   1   12    7     6     4    0.0000E+00  0.0000E+00   0.0000E+00  0.000E+00  0.000E+00  0.000E+00  1.02909E+03  0.000E+00  1.200E+01  6.000E-01  2.890E-01
   1   13    7     6     5    0.0000E+00 -8.0574E-01   8.0574E-01  0.000E+00  0.000E+00  0.000E+00  1.02591E+03  0.000E+00  1.200E+01  2.400E-01 -1.119E+00
   1   14    9     7     1    1.5000E+02  2.0448E+00   1.4796E+02  0.000E+00  0.000E+00  0.000E+00  1.03987E+03  2.286E+00  5.529E+01  5.592E+00  1.219E-01
   1   13    8     7     2    1.4796E+02  2.9989E+00   1.4496E+02  0.000E+00  0.000E+00  0.000E+00  1.03477E+03  2.272E+00  5.523E+01  6.144E+00  1.627E-01
   1   13    7     7     3    1.4496E+02  2.2940E+00   1.4266E+02  0.000E+00  0.000E+00  0.000E+00  1.02968E+03  2.258E+00  5.516E+01  5.578E+00  1.371E-01
   1   13    6     8     1    1.4347E+02  5.8021E-01   1.4289E+02  0.000E+00  0.000E+00  0.000E+00  1.02464E+03  2.768E+00  4.014E+01  4.090E+00  4.729E-02
   1   13    5     8     2    1.4289E+02 -2.1317E+00   1.4502E+02  0.000E+00  0.000E+00  0.000E+00  1.01840E+03  2.774E+00  4.022E+01  4.098E+00 -1.734E-01
   1   13    4     8     3    1.4502E+02 -3.8345E+00   1.4885E+02  0.000E+00  0.000E+00  0.000E+00  1.01217E+03  2.795E+00  4.053E+01  4.130E+00 -3.095E-01
   1   13    3     8     4    1.4885E+02 -4.1465E+00   1.5300E+02  0.000E+00  0.000E+00  0.000E+00  1.00595E+03  2.823E+00  4.094E+01  4.172E+00 -3.313E-01
   1   13    2     8     5    1.5300E+02 -2.0841E+00   1.5508E+02  0.000E+00  0.000E+00  0.000E+00  9.99720E+02  2.845E+00  4.125E+01  4.204E+00 -1.653E-01
   1   13    1     8     6    1.5508E+02 -5.3817E-01   1.5562E+02  0.000E+00  0.000E+00  0.000E+00  9.94729E+02  2.854E+00  4.138E+01  2.530E+00 -7.089E-02



1
  VOLUMETRIC BUDGET FOR ENTIRE MODEL AT END OF TIME STEP 10 IN STRESS PERIOD   7
  ------------------------------------------------------------------------------

     CUMULATIVE VOLUMES      L**3       RATES FOR THIS TIME STEP      L**3/T
     ------------------                 ------------------------

           IN:                                      IN:
           ---                                      ---
             STORAGE =    59435272.0000               STORAGE =           6.4385
       CONSTANT HEAD =           0.0000         CONSTANT HEAD =           0.0000
               WELLS =           0.0000                 WELLS =           0.0000
     HEAD DEP BOUNDS =     3568762.0000       HEAD DEP BOUNDS =           0.2090
        UZF RECHARGE =   235301072.0000          UZF RECHARGE =          12.4883
               GW ET =           0.0000                 GW ET =           0.0000
     SURFACE LEAKAGE =           0.0000       SURFACE LEAKAGE =           0.0000
      STREAM LEAKAGE =   737839104.0000        STREAM LEAKAGE =          42.9179

            TOTAL IN =  1036144192.0000              TOTAL IN =          62.0537

          OUT:                                     OUT:
          ----                                     ----
             STORAGE =   250961616.0000               STORAGE =          10.0602
       CONSTANT HEAD =           0.0000         CONSTANT HEAD =           0.0000
               WELLS =   262884640.0000                 WELLS =          20.0000
     HEAD DEP BOUNDS =     4501997.0000       HEAD DEP BOUNDS =           0.2638
        UZF RECHARGE =           0.0000          UZF RECHARGE =           0.0000
               GW ET =   286384288.0000                 GW ET =          18.1533
     SURFACE LEAKAGE =           0.0000       SURFACE LEAKAGE =           0.0000
      STREAM LEAKAGE =   230904352.0000        STREAM LEAKAGE =          13.5408

           TOTAL OUT =  1035636864.0000             TOTAL OUT =          62.0180

            IN - OUT =      507328.0000              IN - OUT =       3.5671E-02

 PERCENT DISCREPANCY =           0.05     PERCENT DISCREPANCY =           0.06






          TIME SUMMARY AT END OF TIME STEP  10 IN STRESS PERIOD    7
                    SECONDS     MINUTES      HOURS       DAYS        YEARS
                    -----------------------------------------------------------
   TIME STEP LENGTH 1.95033E+05  3250.6      54.176      2.2573     6.18023E-03
 STRESS PERIOD TIME 1.31823E+06  21971.      366.18      15.257     4.17723E-02
         TOTAL TIME 1.70862E+07 2.84770E+05  4746.2      197.76     0.54143    
1
 
 SOLVING FOR HEAD 
    10 ITERATIONS FOR TIME STEP  11 IN STRESS PERIOD    7

 MAXIMUM HEAD CHANGE FOR EACH ITERATION:

    HEAD CHANGE   HEAD CHANGE   HEAD CHANGE   HEAD CHANGE   HEAD CHANGE
  LAYER,ROW,COL LAYER,ROW,COL LAYER,ROW,COL LAYER,ROW,COL LAYER,ROW,COL
 ----------------------------------------------------------------------
     0.4988E-01    0.2554E-01    0.1312E-01    0.6733E-02    0.3402E-02
  (  1,  2,  7) (  1,  2,  7) (  1,  2,  7) (  1,  2,  7) (  1,  2,  7)
     0.1741E-02    0.9445E-03    0.4539E-03    0.2235E-03    0.1110E-03
  (  1,  2,  7) (  1,  2,  7) (  1,  2,  7) (  1,  2,  7) (  1,  2,  7)


 NO OUTPUT CONTROL FOR STRESS PERIOD    7   TIME STEP  11
 
 SOLVING FOR HEAD 
    10 ITERATIONS FOR TIME STEP  12 IN STRESS PERIOD    7

 MAXIMUM HEAD CHANGE FOR EACH ITERATION:

    HEAD CHANGE   HEAD CHANGE   HEAD CHANGE   HEAD CHANGE   HEAD CHANGE
  LAYER,ROW,COL LAYER,ROW,COL LAYER,ROW,COL LAYER,ROW,COL LAYER,ROW,COL
 ----------------------------------------------------------------------
     0.5071E-01    0.2578E-01    0.1309E-01    0.6619E-02    0.3362E-02
  (  1,  2,  7) (  1,  2,  7) (  1,  2,  7) (  1,  2,  7) (  1,  2,  7)
     0.1764E-02    0.8621E-03    0.4642E-03    0.2382E-03    0.1207E-03
  (  1,  2,  7) (  1,  2,  7) (  1,  2,  7) (  1,  2,  7) (  1,  2,  7)


 NO OUTPUT CONTROL FOR STRESS PERIOD    7   TIME STEP  12
 
 SOLVING FOR HEAD 
    10 ITERATIONS FOR TIME STEP  13 IN STRESS PERIOD    7

 MAXIMUM HEAD CHANGE FOR EACH ITERATION:

    HEAD CHANGE   HEAD CHANGE   HEAD CHANGE   HEAD CHANGE   HEAD CHANGE
  LAYER,ROW,COL LAYER,ROW,COL LAYER,ROW,COL LAYER,ROW,COL LAYER,ROW,COL
 ----------------------------------------------------------------------
    -0.5117E-01    0.2314E-01    0.1150E-01    0.5818E-02    0.2844E-02
  (  1,  3,  6) (  1,  2,  7) (  1,  2,  7) (  1,  2,  7) (  1,  2,  7)
     0.1449E-02    0.7701E-03    0.3137E-03    0.2230E-03    0.1083E-03
  (  1,  2,  7) (  1,  2,  7) (  1,  2,  7) (  1,  2,  7) (  1,  2,  6)


 NO OUTPUT CONTROL FOR STRESS PERIOD    7   TIME STEP  13
 
 SOLVING FOR HEAD 
     9 ITERATIONS FOR TIME STEP  14 IN STRESS PERIOD    7

 MAXIMUM HEAD CHANGE FOR EACH ITERATION:

    HEAD CHANGE   HEAD CHANGE   HEAD CHANGE   HEAD CHANGE   HEAD CHANGE
  LAYER,ROW,COL LAYER,ROW,COL LAYER,ROW,COL LAYER,ROW,COL LAYER,ROW,COL
 ----------------------------------------------------------------------
    -0.5461E-01    0.2319E-01    0.1149E-01    0.5633E-02    0.2796E-02
  (  1,  3,  6) (  1,  2,  7) (  1,  2,  7) (  1,  2,  7) (  1,  2,  7)
     0.1438E-02    0.6390E-03    0.3913E-03    0.1663E-03
  (  1,  2,  7) (  1,  2,  7) (  1,  2,  7) (  1,  2,  7)


 NO OUTPUT CONTROL FOR STRESS PERIOD    7   TIME STEP  14
 
 SOLVING FOR HEAD 
     9 ITERATIONS FOR TIME STEP  15 IN STRESS PERIOD    7

 MAXIMUM HEAD CHANGE FOR EACH ITERATION:

    HEAD CHANGE   HEAD CHANGE   HEAD CHANGE   HEAD CHANGE   HEAD CHANGE
  LAYER,ROW,COL LAYER,ROW,COL LAYER,ROW,COL LAYER,ROW,COL LAYER,ROW,COL
 ----------------------------------------------------------------------
    -0.5668E-01   -0.2203E-01    0.1059E-01    0.5203E-02    0.2584E-02
  (  1,  3,  6) (  1,  3,  6) (  1,  2,  7) (  1,  2,  7) (  1,  2,  7)
     0.1192E-02    0.6246E-03    0.3191E-03    0.1597E-03
  (  1,  2,  7) (  1,  2,  7) (  1,  2,  7) (  1,  2,  7)


 OUTPUT CONTROL FOR STRESS PERIOD    7   TIME STEP  15
    PRINT BUDGET
    PRINT HEAD FOR ALL LAYERS
    SAVE HEAD FOR ALL LAYERS
    SAVE BUDGET

            WELLS   PERIOD    7   STEP  15
 WELL      1   LAYER   1   ROW     6   COL     4   RATE    -2.00000    
 WELL      2   LAYER   1   ROW     6   COL     5   RATE    -2.00000    
 WELL      3   LAYER   1   ROW     7   COL     4   RATE    -2.00000    
 WELL      4   LAYER   1   ROW     7   COL     5   RATE    -2.00000    
 WELL      5   LAYER   1   ROW     8   COL     4   RATE    -2.00000    
 WELL      6   LAYER   1   ROW     8   COL     5   RATE    -2.00000    
 WELL      7   LAYER   1   ROW     9   COL     4   RATE    -2.00000    
 WELL      8   LAYER   1   ROW     9   COL     5   RATE    -2.00000    
 WELL      9   LAYER   1   ROW    10   COL     4   RATE    -2.00000    
 WELL     10   LAYER   1   ROW    10   COL     5   RATE    -2.00000    

  HEAD DEP BOUNDS   PERIOD    7   STEP  15
 BOUNDARY      1   LAYER   1   ROW    13   COL     1   RATE   -0.263900    
 BOUNDARY      2   LAYER   1   ROW    14   COL     9   RATE    0.208964    
 UBDSV3 SAVING "           GW ET" ON UNIT  61 AT TIME STEP 15, STRESS PERIOD   7
 UBDSV3 SAVING "    UZF INFILTR." ON UNIT  61 AT TIME STEP 15, STRESS PERIOD   7
 UBDSV3 SAVING "    UZF RECHARGE" ON UNIT  61 AT TIME STEP 15, STRESS PERIOD   7
 UBDSV3 SAVING " SURFACE LEAKAGE" ON UNIT  61 AT TIME STEP 15, STRESS PERIOD   7


UNSATURATED ZONE PACKAGE VOLUMETRIC BUDGET FOR  TIME STEP   15 STRESS PERIOD    7
  ------------------------------------------------------------------------------



     CUMULATIVE VOLUMES      L**3       RATES FOR THIS TIME STEP      L**3/T
     ------------------                 ------------------------

           IN:                                      IN:
           ---                                      ---
        INFILTRATION =  1269520996.1080          INFILTRATION =          25.4250

          OUT:                                     OUT:
          ----                                     ----
              UZF ET =  1438463875.6810                UZF ET =          69.1042
        UZF RECHARGE =   248540944.5473          UZF RECHARGE =           9.2085

            IN - OUT =  -417483824.1202              IN - OUT =         -52.8877

          STORAGE:                                 STORAGE:
          --------                                 --------
      STORAGE CHANGE =  -417283317.1896        STORAGE CHANGE =         -52.8763

 PERCENT DISCREPANCY IS DIFFERENCE BETWEEN IN-OUT MINUS CHANGE IN STORAGE
 DIVIDED BY THE AVERAGE OF IN AND OUT TIMES 100

 PERCENT DISCREPANCY =           0.00     PERCENT DISCREPANCY =          -0.01









 STREAM LISTING     PERIOD      7   STEP       15

 LAYER ROW COL. STREAM  RCH.  FLOW INTO     FLOW TO   FLOW OUT OF   OVRLND.     DIRECT     STREAM       STREAM     STREAM     STREAM   STREAMBED  STREAMBED
                SEG.NO.  NO.  STRM. RCH.    AQUIFER    STRM. RCH.    RUNOFF     PRECIP       ET          HEAD       DEPTH      WIDTH   CONDCTNC.   GRADIENT

   1    1    1     1     1    2.5000E+01  1.0447E+00   2.3955E+01  0.000E+00  0.000E+00  0.000E+00  1.09422E+03  1.172E+00  1.296E+01  5.831E-01  5.972E-01
   1    2    2     1     2    2.3955E+01  3.0655E+00   2.0890E+01  0.000E+00  0.000E+00  0.000E+00  1.08920E+03  1.140E+00  1.253E+01  8.773E-01  1.165E+00
   1    3    3     1     3    2.0890E+01  2.9040E+00   1.7986E+01  0.000E+00  0.000E+00  0.000E+00  1.08351E+03  1.091E+00  1.183E+01  7.099E-01  1.364E+00
   1    3    4     1     4    1.7986E+01  2.4667E+00   1.5519E+01  0.000E+00  0.000E+00  0.000E+00  1.07845E+03  1.045E+00  1.099E+01  6.098E-01  1.348E+00
   1    4    5     2     1    5.5191E+00  2.6624E+00   2.8567E+00  0.000E+00  0.000E+00  0.000E+00  1.07235E+03  4.134E-01  1.200E+01  7.800E-01  1.138E+00
   1    5    6     2     2    2.8567E+00  1.9534E+00   9.0333E-01  0.000E+00  0.000E+00  0.000E+00  1.06677E+03  2.556E-01  1.200E+01  6.000E-01  1.085E+00
   1    6    6     2     3    9.0333E-01  9.0333E-01   0.0000E+00  0.000E+00  0.000E+00  0.000E+00  1.06183E+03  3.705E-02  1.200E+01  6.000E-01  1.012E+00
   1    7    6     2     4    0.0000E+00  0.0000E+00   0.0000E+00  0.000E+00  0.000E+00  0.000E+00  1.05708E+03  0.000E+00  1.200E+01  6.000E-01  1.000E+00
   1    8    6     2     5    0.0000E+00  0.0000E+00   0.0000E+00  0.000E+00  0.000E+00  0.000E+00  1.05236E+03  0.000E+00  1.200E+01  6.000E-01  1.000E+00
   1    3    5     3     1    1.0000E+01  2.7228E+00   7.2772E+00  0.000E+00  0.000E+00  0.000E+00  1.07555E+03  1.909E+00  9.636E+00  7.227E-01  1.884E+00
   1    3    6     3     2    7.2772E+00  1.4821E+00   5.7951E+00  0.000E+00  0.000E+00  0.000E+00  1.07264E+03  1.727E+00  8.909E+00  6.682E-01  1.109E+00
   1    3    7     3     3    5.7951E+00  6.2496E-01   5.1701E+00  0.000E+00  0.000E+00  0.000E+00  1.06987E+03  1.555E+00  8.218E+00  5.547E-01  5.633E-01
   1    4    8     3     4    5.1701E+00  1.5039E+00   3.6662E+00  0.000E+00  0.000E+00  0.000E+00  1.06682E+03  1.364E+00  7.455E+00  6.709E-01  1.121E+00
   1    5    8     3     5    3.6662E+00  1.5790E+00   2.0873E+00  0.000E+00  0.000E+00  0.000E+00  1.06362E+03  1.164E+00  6.655E+00  4.991E-01  1.582E+00
   1    6    8     3     6    2.0873E+00  5.5980E-01   1.5275E+00  0.000E+00  0.000E+00  0.000E+00  1.06158E+03  1.036E+00  6.145E+00  1.844E-01  1.518E+00
   1    5   10     4     1    1.0000E+01  9.0525E-01   9.0947E+00  0.000E+00  0.000E+00  0.000E+00  1.07835E+03  6.210E-01  1.000E+01  2.500E-01  1.207E+00
   1    5    9     4     2    9.0947E+00  1.7835E+00   7.3113E+00  0.000E+00  0.000E+00  0.000E+00  1.07148E+03  5.670E-01  1.000E+01  5.000E-01  1.189E+00
   1    6    8     4     3    7.3113E+00  1.2257E+00   6.0855E+00  0.000E+00  0.000E+00  0.000E+00  1.06368E+03  5.021E-01  1.000E+01  3.500E-01  1.167E+00
   1    6    8     5     1    7.6130E+00  9.9121E-01   6.6218E+00  0.000E+00  0.000E+00  0.000E+00  1.05860E+03  5.963E-01  1.234E+01  4.934E-01  6.696E-01
   1    7    7     5     2    6.6218E+00  1.9101E+00   4.7117E+00  0.000E+00  0.000E+00  0.000E+00  1.05405E+03  5.505E-01  1.076E+01  5.380E-01  1.184E+00
   1    8    7     5     3    4.7117E+00  1.0939E+00   3.6178E+00  0.000E+00  0.000E+00  0.000E+00  1.04974E+03  4.943E-01  8.944E+00  3.130E-01  1.165E+00
   1    8    6     5     4    3.6178E+00  6.6975E-01   2.9481E+00  0.000E+00  0.000E+00  0.000E+00  1.04670E+03  4.548E-01  7.754E+00  1.939E-01  1.152E+00
   1    9    6     6     1    2.9481E+00  1.9594E+00   9.8865E-01  0.000E+00  0.000E+00  0.000E+00  1.04299E+03  2.657E-01  1.200E+01  6.000E-01  1.089E+00
   1   10    7     6     2    9.8865E-01  9.8865E-01   0.0000E+00  0.000E+00  0.000E+00  0.000E+00  1.03820E+03  1.978E-02  1.200E+01  6.000E-01  1.007E+00
   1   11    7     6     3    0.0000E+00  0.0000E+00   0.0000E+00  0.000E+00  0.000E+00  0.000E+00  1.03364E+03  0.000E+00  1.200E+01  6.000E-01  1.000E+00
   1   12    7     6     4    0.0000E+00  0.0000E+00   0.0000E+00  0.000E+00  0.000E+00  0.000E+00  1.02909E+03  0.000E+00  1.200E+01  6.000E-01  2.849E-01
   1   13    7     6     5    0.0000E+00 -8.0861E-01   8.0861E-01  0.000E+00  0.000E+00  0.000E+00  1.02591E+03  0.000E+00  1.200E+01  2.400E-01 -1.123E+00
   1   14    9     7     1    1.5000E+02  2.0443E+00   1.4796E+02  0.000E+00  0.000E+00  0.000E+00  1.03987E+03  2.286E+00  5.529E+01  5.592E+00  1.219E-01
   1   13    8     7     2    1.4796E+02  2.9891E+00   1.4497E+02  0.000E+00  0.000E+00  0.000E+00  1.03477E+03  2.272E+00  5.523E+01  6.144E+00  1.622E-01
   1   13    7     7     3    1.4497E+02  2.2285E+00   1.4274E+02  0.000E+00  0.000E+00  0.000E+00  1.02968E+03  2.258E+00  5.516E+01  5.579E+00  1.332E-01
   1   13    6     8     1    1.4355E+02  5.6893E-01   1.4298E+02  0.000E+00  0.000E+00  0.000E+00  1.02464E+03  2.769E+00  4.015E+01  4.091E+00  4.636E-02
   1   13    5     8     2    1.4298E+02 -2.0407E+00   1.4502E+02  0.000E+00  0.000E+00  0.000E+00  1.01840E+03  2.774E+00  4.022E+01  4.099E+00 -1.660E-01
   1   13    4     8     3    1.4502E+02 -3.7555E+00   1.4877E+02  0.000E+00  0.000E+00  0.000E+00  1.01217E+03  2.795E+00  4.053E+01  4.130E+00 -3.031E-01
   1   13    3     8     4    1.4877E+02 -4.0383E+00   1.5281E+02  0.000E+00  0.000E+00  0.000E+00  1.00595E+03  2.822E+00  4.093E+01  4.170E+00 -3.228E-01
   1   13    2     8     5    1.5281E+02 -2.0784E+00   1.5489E+02  0.000E+00  0.000E+00  0.000E+00  9.99719E+02  2.844E+00  4.123E+01  4.202E+00 -1.649E-01
   1   13    1     8     6    1.5489E+02 -5.4863E-01   1.5544E+02  0.000E+00  0.000E+00  0.000E+00  9.94728E+02  2.853E+00  4.137E+01  2.529E+00 -7.231E-02



1
              HEAD IN LAYER   1 AT END OF TIME STEP  15 IN STRESS PERIOD    7
  ---------------------------------------------------------------------------

           1       2       3       4       5       6       7       8       9      10
 ...................................................................................
   1  1092.43 1088.67 6999.00 6999.00 6999.00 6999.00 6999.00 6999.00 6999.00 6999.00
   2  1089.11 1085.70 1079.22 6999.00 6999.00 1073.73 1072.67 1070.57 6999.00 6999.00
   3  6999.00 1077.41 1074.42 1070.33 1071.78 1070.42 1068.75 1068.13 6999.00 6999.00
   4  1067.83 1068.41 1066.75 1063.28 1062.19 1060.94 1061.70 1064.58 1063.84 6999.00
   5  1063.69 1061.33 1058.76 1056.80 1056.57 1057.25 1057.20 1059.39 1062.91 1065.34
   6  1059.01 1055.40 1052.34 1050.30 1050.68 1052.60 1054.06 1056.59 1059.41 1063.67
   7  1055.35 1049.74 1046.48 1044.62 1045.33 1047.63 1050.32 1052.77 1054.17 6999.00
   8  6999.00 1042.39 1040.42 1039.05 1040.04 1042.56 1044.61 1047.19 1049.16 6999.00
   9  6999.00 1035.44 1034.43 1033.71 1035.01 1037.68 1038.81 1040.72 1043.74 6999.00
  10  6999.00 1028.41 1028.47 1028.85 1030.44 1032.76 1034.39 1036.26 1040.01 1044.38
  11  6999.00 1019.65 1021.22 1024.55 1026.63 1028.84 1030.48 1032.82 1036.29 6999.00
  12  1001.19 1008.85 1014.05 1018.84 1022.49 1025.78 1028.24 1031.11 1034.87 6999.00
  13   994.94 1000.21 1006.92 1013.08 1018.90 1024.50 1029.28 1034.29 1036.41 6999.00
  14  6999.00 1005.83 1011.53 1016.25 1021.28 1026.04 1030.32 1035.30 1039.50 6999.00
  15  6999.00 6999.00 1018.84 1021.83 1025.57 1028.55 6999.00 6999.00 6999.00 6999.00

 HEAD WILL BE SAVED ON UNIT   58 AT END OF TIME STEP  15, STRESS PERIOD    7
1
  VOLUMETRIC BUDGET FOR ENTIRE MODEL AT END OF TIME STEP 15 IN STRESS PERIOD   7
  ------------------------------------------------------------------------------

     CUMULATIVE VOLUMES      L**3       RATES FOR THIS TIME STEP      L**3/T
     ------------------                 ------------------------

           IN:                                      IN:
           ---                                      ---
             STORAGE =    67400824.0000               STORAGE =           5.4774
       CONSTANT HEAD =           0.0000         CONSTANT HEAD =           0.0000
               WELLS =           0.0000                 WELLS =           0.0000
     HEAD DEP BOUNDS =     3842457.5000       HEAD DEP BOUNDS =           0.2090
        UZF RECHARGE =   248540928.0000          UZF RECHARGE =           9.2085
               GW ET =           0.0000                 GW ET =           0.0000
     SURFACE LEAKAGE =           0.0000       SURFACE LEAKAGE =           0.0000
      STREAM LEAKAGE =   793952512.0000        STREAM LEAKAGE =          42.8309

            TOTAL IN =  1113736704.0000              TOTAL IN =          57.7257

          OUT:                                     OUT:
          ----                                     ----
             STORAGE =   260835936.0000               STORAGE =           6.0944
       CONSTANT HEAD =           0.0000         CONSTANT HEAD =           0.0000
               WELLS =   289079936.0000                 WELLS =          20.0000
     HEAD DEP BOUNDS =     4847425.0000       HEAD DEP BOUNDS =           0.2639
        UZF RECHARGE =           0.0000          UZF RECHARGE =           0.0000
               GW ET =   310070944.0000                 GW ET =          18.0615
     SURFACE LEAKAGE =           0.0000       SURFACE LEAKAGE =           0.0000
      STREAM LEAKAGE =   248371392.0000        STREAM LEAKAGE =          13.2701

           TOTAL OUT =  1113205632.0000             TOTAL OUT =          57.6899

            IN - OUT =      531072.0000              IN - OUT =       3.5828E-02

 PERCENT DISCREPANCY =           0.05     PERCENT DISCREPANCY =           0.06






          TIME SUMMARY AT END OF TIME STEP  15 IN STRESS PERIOD    7
                    SECONDS     MINUTES      HOURS       DAYS        YEARS
                    -----------------------------------------------------------
   TIME STEP LENGTH 3.14103E+05  5235.0      87.251      3.6354     9.95332E-03
 STRESS PERIOD TIME 2.62800E+06  43800.      730.00      30.417     8.32763E-02
         TOTAL TIME 1.83960E+07 3.06600E+05  5110.0      212.92     0.58293    
1
1
                            STRESS PERIOD NO.    8, LENGTH =   2628000.    
                            -----------------------------------------------

                              NUMBER OF TIME STEPS =    15

                               MULTIPLIER FOR DELT =     1.100

                            INITIAL TIME STEP SIZE =   82713.07    

      0 WELLS

 REUSING NON-PARAMETER GHB CELLS FROM LAST STRESS PERIOD

      2 GHB CELLS

 REUSING STREAM SEGMENT DATA FROM LAST STRESS PERIOD



            AREAL INFILTRATION RATE
 READING ON UNIT   19 WITH FORMAT: (10F4.0)            

            1           2           3           4           5           6           7           8           9          10
 ........................................................................................................................
   1   5.0000E-09  1.0000E-08   0.000       0.000       0.000       0.000       0.000       0.000       0.000       0.000    
   2   1.0000E-08  5.0000E-09  1.0000E-08   0.000       0.000      4.0000E-08  4.0000E-08  2.5000E-08   0.000       0.000    
   3    0.000      2.5000E-08  5.0000E-09  5.0000E-09  4.0000E-08  4.0000E-08  2.5000E-08  2.5000E-08   0.000       0.000    
   4   4.0000E-08  2.5000E-08  5.0000E-09  5.0000E-09  5.0000E-09  5.0000E-09  5.0000E-09  5.0000E-09  1.0000E-08   0.000    
   5   4.0000E-08  2.5000E-08  5.0000E-09  5.0000E-09  5.0000E-09  5.0000E-09  5.0000E-09  5.0000E-09  5.0000E-09  5.0000E-09
   6   4.0000E-08  2.5000E-08  2.5000E-08  1.0000E-08  1.0000E-08  5.0000E-09  5.0000E-09  5.0000E-09  5.0000E-09  2.5000E-08
   7   4.0000E-08  2.5000E-08  2.5000E-08  1.0000E-08  1.0000E-08  5.0000E-09  5.0000E-09  1.0000E-08  1.0000E-08   0.000    
   8    0.000      2.5000E-08  2.5000E-08  1.0000E-08  1.0000E-08  5.0000E-09  5.0000E-09  1.0000E-08  2.5000E-08   0.000    
   9    0.000      2.5000E-08  2.5000E-08  1.0000E-08  1.0000E-08  5.0000E-09  5.0000E-09  1.0000E-08  2.5000E-08   0.000    
  10    0.000      2.5000E-08  2.5000E-08  1.0000E-08  1.0000E-08  5.0000E-09  5.0000E-09  1.0000E-08  2.5000E-08  4.0000E-08
  11    0.000      5.0000E-09  5.0000E-09  5.0000E-09  5.0000E-09  5.0000E-09  5.0000E-09  1.0000E-08  2.5000E-08   0.000    
  12   5.0000E-09  5.0000E-09  5.0000E-09  5.0000E-09  5.0000E-09  5.0000E-09  5.0000E-09  5.0000E-09  1.0000E-08   0.000    
  13   5.0000E-09  5.0000E-09  1.0000E-08  1.0000E-08  1.0000E-08  1.0000E-08  1.0000E-08  5.0000E-09  5.0000E-09   0.000    
  14    0.000      1.0000E-08  2.5000E-08  2.5000E-08  2.5000E-08  2.5000E-08  2.5000E-08  1.0000E-08  5.0000E-09   0.000    
  15    0.000       0.000      4.0000E-08  4.0000E-08  4.0000E-08  4.0000E-08   0.000       0.000       0.000       0.000    

USING ET RATE FROM PREVIOUS STRESS PERIOD. CURRENT PERIOD IS:       8

 USING ET EXTINCTION DEPTH FROM PREVIOUS STRESS PERIOD. CURRENT PERIOD IS:       8

 USING EXTINCTION WATER CONTENT FROM PREVIOUS STRESS PERIOD. CURRENT PERIOD IS:       8
 
 SOLVING FOR HEAD 

     7 ITERATIONS FOR TIME STEP   1 IN STRESS PERIOD    8

 MAXIMUM HEAD CHANGE FOR EACH ITERATION:

    HEAD CHANGE   HEAD CHANGE   HEAD CHANGE   HEAD CHANGE   HEAD CHANGE
  LAYER,ROW,COL LAYER,ROW,COL LAYER,ROW,COL LAYER,ROW,COL LAYER,ROW,COL
 ----------------------------------------------------------------------
     0.2271E-01   -0.5877E-02   -0.2421E-02    0.1125E-02    0.5337E-03
  (  1,  6,  5) (  1,  3,  6) (  1,  3,  5) (  1,  2,  7) (  1,  2,  7)
     0.2611E-03    0.1552E-03
  (  1,  2,  7) (  1,  2,  7)


 NO OUTPUT CONTROL FOR STRESS PERIOD    8   TIME STEP   1
 
 SOLVING FOR HEAD 
     7 ITERATIONS FOR TIME STEP   2 IN STRESS PERIOD    8

 MAXIMUM HEAD CHANGE FOR EACH ITERATION:

    HEAD CHANGE   HEAD CHANGE   HEAD CHANGE   HEAD CHANGE   HEAD CHANGE
  LAYER,ROW,COL LAYER,ROW,COL LAYER,ROW,COL LAYER,ROW,COL LAYER,ROW,COL
 ----------------------------------------------------------------------
     0.2423E-01    0.6771E-02   -0.2527E-02    0.1234E-02    0.5865E-03
  (  1,  6,  5) (  1,  8,  4) (  1,  3,  5) (  1,  2,  7) (  1,  2,  7)
     0.2869E-03    0.1141E-03
  (  1,  2,  7) (  1,  2,  7)


 NO OUTPUT CONTROL FOR STRESS PERIOD    8   TIME STEP   2
 
 SOLVING FOR HEAD 
     7 ITERATIONS FOR TIME STEP   3 IN STRESS PERIOD    8

 MAXIMUM HEAD CHANGE FOR EACH ITERATION:

    HEAD CHANGE   HEAD CHANGE   HEAD CHANGE   HEAD CHANGE   HEAD CHANGE
  LAYER,ROW,COL LAYER,ROW,COL LAYER,ROW,COL LAYER,ROW,COL LAYER,ROW,COL
 ----------------------------------------------------------------------
     0.2687E-01    0.8966E-02    0.2977E-02    0.1195E-02    0.6120E-03
  (  1,  8,  5) (  1,  8,  4) (  1,  8,  4) (  1,  2,  7) (  1,  2,  7)
     0.3091E-03    0.1242E-03
  (  1,  2,  7) (  1,  2,  7)


 NO OUTPUT CONTROL FOR STRESS PERIOD    8   TIME STEP   3
 
 SOLVING FOR HEAD 
     7 ITERATIONS FOR TIME STEP   4 IN STRESS PERIOD    8

 MAXIMUM HEAD CHANGE FOR EACH ITERATION:

    HEAD CHANGE   HEAD CHANGE   HEAD CHANGE   HEAD CHANGE   HEAD CHANGE
  LAYER,ROW,COL LAYER,ROW,COL LAYER,ROW,COL LAYER,ROW,COL LAYER,ROW,COL
 ----------------------------------------------------------------------
     0.2921E-01    0.9758E-02    0.3320E-02    0.1291E-02    0.6003E-03
  (  1,  8,  4) (  1,  8,  4) (  1,  8,  4) (  1,  2,  7) (  1,  2,  7)
     0.3252E-03    0.1335E-03
  (  1,  2,  7) (  1,  2,  7)


 NO OUTPUT CONTROL FOR STRESS PERIOD    8   TIME STEP   4
 
 SOLVING FOR HEAD 
     7 ITERATIONS FOR TIME STEP   5 IN STRESS PERIOD    8

 MAXIMUM HEAD CHANGE FOR EACH ITERATION:

    HEAD CHANGE   HEAD CHANGE   HEAD CHANGE   HEAD CHANGE   HEAD CHANGE
  LAYER,ROW,COL LAYER,ROW,COL LAYER,ROW,COL LAYER,ROW,COL LAYER,ROW,COL
 ----------------------------------------------------------------------
     0.3200E-01    0.1070E-01    0.3572E-02    0.1314E-02    0.6388E-03
  (  1,  8,  4) (  1,  8,  4) (  1,  8,  4) (  1,  2,  7) (  1,  2,  7)
     0.3533E-03    0.1459E-03
  (  1,  2,  7) (  1,  2,  7)


 OUTPUT CONTROL FOR STRESS PERIOD    8   TIME STEP   5
    PRINT BUDGET
    SAVE BUDGET

  HEAD DEP BOUNDS   PERIOD    8   STEP   5
 BOUNDARY      1   LAYER   1   ROW    13   COL     1   RATE   -0.264103    
 BOUNDARY      2   LAYER   1   ROW    14   COL     9   RATE    0.208955    
 UBDSV3 SAVING "           GW ET" ON UNIT  61 AT TIME STEP  5, STRESS PERIOD   8
 UBDSV3 SAVING "    UZF INFILTR." ON UNIT  61 AT TIME STEP  5, STRESS PERIOD   8
 UBDSV3 SAVING "    UZF RECHARGE" ON UNIT  61 AT TIME STEP  5, STRESS PERIOD   8
 UBDSV3 SAVING " SURFACE LEAKAGE" ON UNIT  61 AT TIME STEP  5, STRESS PERIOD   8


UNSATURATED ZONE PACKAGE VOLUMETRIC BUDGET FOR  TIME STEP    5 STRESS PERIOD    8
  ------------------------------------------------------------------------------



     CUMULATIVE VOLUMES      L**3       RATES FOR THIS TIME STEP      L**3/T
     ------------------                 ------------------------

           IN:                                      IN:
           ---                                      ---
        INFILTRATION =  1290919167.0778          INFILTRATION =          42.3750

          OUT:                                     OUT:
          ----                                     ----
              UZF ET =  1473203954.3142                UZF ET =          68.6435
        UZF RECHARGE =   254036348.1686          UZF RECHARGE =          11.9924

            IN - OUT =  -436321135.4049              IN - OUT =         -38.2609

          STORAGE:                                 STORAGE:
          --------                                 --------
      STORAGE CHANGE =  -436120583.8038        STORAGE CHANGE =         -38.2608

 PERCENT DISCREPANCY IS DIFFERENCE BETWEEN IN-OUT MINUS CHANGE IN STORAGE
 DIVIDED BY THE AVERAGE OF IN AND OUT TIMES 100

 PERCENT DISCREPANCY =           0.00     PERCENT DISCREPANCY =           0.00









 STREAM LISTING     PERIOD      8   STEP        5

 LAYER ROW COL. STREAM  RCH.  FLOW INTO     FLOW TO   FLOW OUT OF   OVRLND.     DIRECT     STREAM       STREAM     STREAM     STREAM   STREAMBED  STREAMBED
                SEG.NO.  NO.  STRM. RCH.    AQUIFER    STRM. RCH.    RUNOFF     PRECIP       ET          HEAD       DEPTH      WIDTH   CONDCTNC.   GRADIENT

   1    1    1     1     1    2.5000E+01  1.0466E+00   2.3953E+01  0.000E+00  0.000E+00  0.000E+00  1.09422E+03  1.172E+00  1.296E+01  5.831E-01  5.983E-01
   1    2    2     1     2    2.3953E+01  3.0657E+00   2.0888E+01  0.000E+00  0.000E+00  0.000E+00  1.08920E+03  1.140E+00  1.253E+01  8.773E-01  1.165E+00
   1    3    3     1     3    2.0888E+01  2.9038E+00   1.7984E+01  0.000E+00  0.000E+00  0.000E+00  1.08351E+03  1.091E+00  1.183E+01  7.098E-01  1.364E+00
   1    3    4     1     4    1.7984E+01  2.4665E+00   1.5517E+01  0.000E+00  0.000E+00  0.000E+00  1.07845E+03  1.045E+00  1.099E+01  6.098E-01  1.348E+00
   1    4    5     2     1    5.5173E+00  2.6624E+00   2.8550E+00  0.000E+00  0.000E+00  0.000E+00  1.07235E+03  4.133E-01  1.200E+01  7.800E-01  1.138E+00
   1    5    6     2     2    2.8550E+00  1.9533E+00   9.0168E-01  0.000E+00  0.000E+00  0.000E+00  1.06676E+03  2.555E-01  1.200E+01  6.000E-01  1.085E+00
   1    6    6     2     3    9.0168E-01  9.0168E-01   0.0000E+00  0.000E+00  0.000E+00  0.000E+00  1.06183E+03  3.701E-02  1.200E+01  6.000E-01  1.012E+00
   1    7    6     2     4    0.0000E+00  0.0000E+00   0.0000E+00  0.000E+00  0.000E+00  0.000E+00  1.05708E+03  0.000E+00  1.200E+01  6.000E-01  1.000E+00
   1    8    6     2     5    0.0000E+00  0.0000E+00   0.0000E+00  0.000E+00  0.000E+00  0.000E+00  1.05236E+03  0.000E+00  1.200E+01  6.000E-01  1.000E+00
   1    3    5     3     1    1.0000E+01  2.8180E+00   7.1820E+00  0.000E+00  0.000E+00  0.000E+00  1.07555E+03  1.909E+00  9.636E+00  7.227E-01  1.950E+00
   1    3    6     3     2    7.1820E+00  1.5738E+00   5.6082E+00  0.000E+00  0.000E+00  0.000E+00  1.07264E+03  1.727E+00  8.909E+00  6.682E-01  1.178E+00
   1    3    7     3     3    5.6082E+00  6.7549E-01   4.9327E+00  0.000E+00  0.000E+00  0.000E+00  1.06987E+03  1.555E+00  8.218E+00  5.547E-01  6.088E-01
   1    4    8     3     4    4.9327E+00  1.5081E+00   3.4246E+00  0.000E+00  0.000E+00  0.000E+00  1.06682E+03  1.364E+00  7.455E+00  6.709E-01  1.124E+00
   1    5    8     3     5    3.4246E+00  1.5790E+00   1.8457E+00  0.000E+00  0.000E+00  0.000E+00  1.06362E+03  1.164E+00  6.655E+00  4.991E-01  1.582E+00
   1    6    8     3     6    1.8457E+00  5.5980E-01   1.2859E+00  0.000E+00  0.000E+00  0.000E+00  1.06158E+03  1.036E+00  6.145E+00  1.844E-01  1.518E+00
   1    5   10     4     1    1.0000E+01  9.0525E-01   9.0947E+00  0.000E+00  0.000E+00  0.000E+00  1.07835E+03  6.210E-01  1.000E+01  2.500E-01  1.207E+00
   1    5    9     4     2    9.0947E+00  1.7835E+00   7.3113E+00  0.000E+00  0.000E+00  0.000E+00  1.07148E+03  5.670E-01  1.000E+01  5.000E-01  1.189E+00
   1    6    8     4     3    7.3113E+00  1.2257E+00   6.0855E+00  0.000E+00  0.000E+00  0.000E+00  1.06368E+03  5.021E-01  1.000E+01  3.500E-01  1.167E+00
   1    6    8     5     1    7.3714E+00  9.6608E-01   6.4053E+00  0.000E+00  0.000E+00  0.000E+00  1.05859E+03  5.895E-01  1.210E+01  4.839E-01  6.655E-01
   1    7    7     5     2    6.4053E+00  1.8669E+00   4.5385E+00  0.000E+00  0.000E+00  0.000E+00  1.05404E+03  5.438E-01  1.054E+01  5.268E-01  1.181E+00
   1    8    7     5     3    4.5385E+00  1.0665E+00   3.4720E+00  0.000E+00  0.000E+00  0.000E+00  1.04974E+03  4.876E-01  8.737E+00  3.058E-01  1.163E+00
   1    8    6     5     4    3.4720E+00  6.5160E-01   2.8204E+00  0.000E+00  0.000E+00  0.000E+00  1.04670E+03  4.481E-01  7.559E+00  1.890E-01  1.149E+00
   1    9    6     6     1    2.8204E+00  1.9533E+00   8.6705E-01  0.000E+00  0.000E+00  0.000E+00  1.04298E+03  2.555E-01  1.200E+01  6.000E-01  1.085E+00
   1   10    7     6     2    8.6705E-01  8.6705E-01   0.0000E+00  0.000E+00  0.000E+00  0.000E+00  1.03822E+03  3.656E-02  1.200E+01  6.000E-01  1.012E+00
   1   11    7     6     3    0.0000E+00  0.0000E+00   0.0000E+00  0.000E+00  0.000E+00  0.000E+00  1.03364E+03  0.000E+00  1.200E+01  6.000E-01  1.000E+00
   1   12    7     6     4    0.0000E+00  0.0000E+00   0.0000E+00  0.000E+00  0.000E+00  0.000E+00  1.02909E+03  0.000E+00  1.200E+01  6.000E-01  2.834E-01
   1   13    7     6     5    0.0000E+00 -8.0723E-01   8.0723E-01  0.000E+00  0.000E+00  0.000E+00  1.02591E+03  0.000E+00  1.200E+01  2.400E-01 -1.121E+00
   1   14    9     7     1    1.5000E+02  2.0431E+00   1.4796E+02  0.000E+00  0.000E+00  0.000E+00  1.03987E+03  2.286E+00  5.529E+01  5.592E+00  1.218E-01
   1   13    8     7     2    1.4796E+02  2.9891E+00   1.4497E+02  0.000E+00  0.000E+00  0.000E+00  1.03477E+03  2.272E+00  5.523E+01  6.144E+00  1.622E-01
   1   13    7     7     3    1.4497E+02  2.2603E+00   1.4271E+02  0.000E+00  0.000E+00  0.000E+00  1.02968E+03  2.258E+00  5.516E+01  5.579E+00  1.351E-01
   1   13    6     8     1    1.4351E+02  6.0442E-01   1.4291E+02  0.000E+00  0.000E+00  0.000E+00  1.02464E+03  2.768E+00  4.014E+01  4.091E+00  4.925E-02
   1   13    5     8     2    1.4291E+02 -2.0316E+00   1.4494E+02  0.000E+00  0.000E+00  0.000E+00  1.01840E+03  2.774E+00  4.022E+01  4.098E+00 -1.652E-01
   1   13    4     8     3    1.4494E+02 -3.7459E+00   1.4869E+02  0.000E+00  0.000E+00  0.000E+00  1.01217E+03  2.794E+00  4.052E+01  4.129E+00 -3.024E-01
   1   13    3     8     4    1.4869E+02 -4.0255E+00   1.5271E+02  0.000E+00  0.000E+00  0.000E+00  1.00595E+03  2.822E+00  4.092E+01  4.169E+00 -3.218E-01
   1   13    2     8     5    1.5271E+02 -2.0785E+00   1.5479E+02  0.000E+00  0.000E+00  0.000E+00  9.99718E+02  2.843E+00  4.122E+01  4.201E+00 -1.649E-01
   1   13    1     8     6    1.5479E+02 -5.6359E-01   1.5536E+02  0.000E+00  0.000E+00  0.000E+00  9.94727E+02  2.852E+00  4.136E+01  2.529E+00 -7.429E-02



1
  VOLUMETRIC BUDGET FOR ENTIRE MODEL AT END OF TIME STEP  5 IN STRESS PERIOD   8
  ------------------------------------------------------------------------------

     CUMULATIVE VOLUMES      L**3       RATES FOR THIS TIME STEP      L**3/T
     ------------------                 ------------------------

           IN:                                      IN:
           ---                                      ---
             STORAGE =    68632032.0000               STORAGE =           2.3393
       CONSTANT HEAD =           0.0000         CONSTANT HEAD =           0.0000
               WELLS =           0.0000                 WELLS =           0.0000
     HEAD DEP BOUNDS =     3947976.5000       HEAD DEP BOUNDS =           0.2090
        UZF RECHARGE =   254036320.0000          UZF RECHARGE =          11.9924
               GW ET =           0.0000                 GW ET =           0.0000
     SURFACE LEAKAGE =           0.0000       SURFACE LEAKAGE =           0.0000
      STREAM LEAKAGE =   815600128.0000        STREAM LEAKAGE =          42.8969

            TOTAL IN =  1142216448.0000              TOTAL IN =          57.4375

          OUT:                                     OUT:
          ----                                     ----
             STORAGE =   273317376.0000               STORAGE =          25.8114
       CONSTANT HEAD =           0.0000         CONSTANT HEAD =           0.0000
               WELLS =   289079936.0000                 WELLS =           0.0000
     HEAD DEP BOUNDS =     4980753.5000       HEAD DEP BOUNDS =           0.2641
        UZF RECHARGE =           0.0000          UZF RECHARGE =           0.0000
               GW ET =   319199072.0000                 GW ET =          18.0847
     SURFACE LEAKAGE =           0.0000       SURFACE LEAKAGE =           0.0000
      STREAM LEAKAGE =   255066320.0000        STREAM LEAKAGE =          13.2523

           TOTAL OUT =  1141643520.0000             TOTAL OUT =          57.4125

            IN - OUT =      572928.0000              IN - OUT =       2.5013E-02

 PERCENT DISCREPANCY =           0.05     PERCENT DISCREPANCY =           0.04






          TIME SUMMARY AT END OF TIME STEP   5 IN STRESS PERIOD    8
                    SECONDS     MINUTES      HOURS       DAYS        YEARS
                    -----------------------------------------------------------
   TIME STEP LENGTH 1.21100E+05  2018.3      33.639      1.4016     3.83743E-03
 STRESS PERIOD TIME 5.04972E+05  8416.2      140.27      5.8446     1.60016E-02
         TOTAL TIME 1.89010E+07 3.15016E+05  5250.3      218.76     0.59894    
1
 
 SOLVING FOR HEAD 
     7 ITERATIONS FOR TIME STEP   6 IN STRESS PERIOD    8

 MAXIMUM HEAD CHANGE FOR EACH ITERATION:

    HEAD CHANGE   HEAD CHANGE   HEAD CHANGE   HEAD CHANGE   HEAD CHANGE
  LAYER,ROW,COL LAYER,ROW,COL LAYER,ROW,COL LAYER,ROW,COL LAYER,ROW,COL
 ----------------------------------------------------------------------
     0.3491E-01    0.1171E-01    0.3916E-02    0.1352E-02    0.6760E-03
  (  1,  8,  4) (  1,  8,  4) (  1,  8,  4) (  1,  7,  4) (  1,  2,  7)
     0.3006E-03    0.1423E-03
  (  1,  2,  7) (  1,  2,  7)


 NO OUTPUT CONTROL FOR STRESS PERIOD    8   TIME STEP   6
 
 SOLVING FOR HEAD 
     7 ITERATIONS FOR TIME STEP   7 IN STRESS PERIOD    8

 MAXIMUM HEAD CHANGE FOR EACH ITERATION:

    HEAD CHANGE   HEAD CHANGE   HEAD CHANGE   HEAD CHANGE   HEAD CHANGE
  LAYER,ROW,COL LAYER,ROW,COL LAYER,ROW,COL LAYER,ROW,COL LAYER,ROW,COL
 ----------------------------------------------------------------------
     0.3808E-01    0.1273E-01    0.4274E-02    0.1464E-02    0.6459E-03
  (  1,  8,  4) (  1,  8,  4) (  1,  8,  4) (  1,  7,  4) (  1,  2,  7)
     0.3108E-03    0.1531E-03
  (  1,  2,  7) (  1,  2,  7)


 NO OUTPUT CONTROL FOR STRESS PERIOD    8   TIME STEP   7
 
 SOLVING FOR HEAD 
     7 ITERATIONS FOR TIME STEP   8 IN STRESS PERIOD    8

 MAXIMUM HEAD CHANGE FOR EACH ITERATION:

    HEAD CHANGE   HEAD CHANGE   HEAD CHANGE   HEAD CHANGE   HEAD CHANGE
  LAYER,ROW,COL LAYER,ROW,COL LAYER,ROW,COL LAYER,ROW,COL LAYER,ROW,COL
 ----------------------------------------------------------------------
     0.4143E-01    0.1386E-01    0.4624E-02    0.1572E-02    0.6778E-03
  (  1,  8,  4) (  1,  8,  4) (  1,  8,  4) (  1,  8,  4) (  1,  2,  7)
     0.3350E-03    0.1671E-03
  (  1,  2,  7) (  1,  2,  7)


 NO OUTPUT CONTROL FOR STRESS PERIOD    8   TIME STEP   8
 
 SOLVING FOR HEAD 
     7 ITERATIONS FOR TIME STEP   9 IN STRESS PERIOD    8

 MAXIMUM HEAD CHANGE FOR EACH ITERATION:

    HEAD CHANGE   HEAD CHANGE   HEAD CHANGE   HEAD CHANGE   HEAD CHANGE
  LAYER,ROW,COL LAYER,ROW,COL LAYER,ROW,COL LAYER,ROW,COL LAYER,ROW,COL
 ----------------------------------------------------------------------
     0.4500E-01    0.1507E-01    0.5047E-02    0.1669E-02    0.5619E-03
  (  1,  8,  4) (  1,  8,  4) (  1,  8,  4) (  1,  8,  4) (  1,  2,  6)
     0.2683E-03    0.1086E-03
  (  1,  2,  7) (  1,  2,  7)


 NO OUTPUT CONTROL FOR STRESS PERIOD    8   TIME STEP   9
 
 SOLVING FOR HEAD 
     7 ITERATIONS FOR TIME STEP  10 IN STRESS PERIOD    8

 MAXIMUM HEAD CHANGE FOR EACH ITERATION:

    HEAD CHANGE   HEAD CHANGE   HEAD CHANGE   HEAD CHANGE   HEAD CHANGE
  LAYER,ROW,COL LAYER,ROW,COL LAYER,ROW,COL LAYER,ROW,COL LAYER,ROW,COL
 ----------------------------------------------------------------------
     0.4887E-01    0.1633E-01    0.5498E-02    0.1822E-02    0.6048E-03
  (  1,  8,  4) (  1,  8,  4) (  1,  8,  4) (  1,  8,  4) (  1,  8,  4)
     0.2345E-03    0.1058E-03
  (  1,  7,  4) (  1,  2,  7)


 OUTPUT CONTROL FOR STRESS PERIOD    8   TIME STEP  10
    PRINT BUDGET
    SAVE BUDGET

  HEAD DEP BOUNDS   PERIOD    8   STEP  10
 BOUNDARY      1   LAYER   1   ROW    13   COL     1   RATE   -0.264118    
 BOUNDARY      2   LAYER   1   ROW    14   COL     9   RATE    0.208954    
 UBDSV3 SAVING "           GW ET" ON UNIT  61 AT TIME STEP 10, STRESS PERIOD   8
 UBDSV3 SAVING "    UZF INFILTR." ON UNIT  61 AT TIME STEP 10, STRESS PERIOD   8
 UBDSV3 SAVING "    UZF RECHARGE" ON UNIT  61 AT TIME STEP 10, STRESS PERIOD   8
 UBDSV3 SAVING " SURFACE LEAKAGE" ON UNIT  61 AT TIME STEP 10, STRESS PERIOD   8


UNSATURATED ZONE PACKAGE VOLUMETRIC BUDGET FOR  TIME STEP   10 STRESS PERIOD    8
  ------------------------------------------------------------------------------



     CUMULATIVE VOLUMES      L**3       RATES FOR THIS TIME STEP      L**3/T
     ------------------                 ------------------------

           IN:                                      IN:
           ---                                      ---
        INFILTRATION =  1325381137.0700          INFILTRATION =          42.3750

          OUT:                                     OUT:
          ----                                     ----
              UZF ET =  1528854588.4719                UZF ET =          68.2913
        UZF RECHARGE =   263481043.5155          UZF RECHARGE =          11.4570

            IN - OUT =  -466954494.9175              IN - OUT =         -37.3733

          STORAGE:                                 STORAGE:
          --------                                 --------
      STORAGE CHANGE =  -466753993.1116        STORAGE CHANGE =         -37.3748

 PERCENT DISCREPANCY IS DIFFERENCE BETWEEN IN-OUT MINUS CHANGE IN STORAGE
 DIVIDED BY THE AVERAGE OF IN AND OUT TIMES 100

 PERCENT DISCREPANCY =           0.00     PERCENT DISCREPANCY =           0.00









 STREAM LISTING     PERIOD      8   STEP       10

 LAYER ROW COL. STREAM  RCH.  FLOW INTO     FLOW TO   FLOW OUT OF   OVRLND.     DIRECT     STREAM       STREAM     STREAM     STREAM   STREAMBED  STREAMBED
                SEG.NO.  NO.  STRM. RCH.    AQUIFER    STRM. RCH.    RUNOFF     PRECIP       ET          HEAD       DEPTH      WIDTH   CONDCTNC.   GRADIENT

   1    1    1     1     1    2.5000E+01  1.0495E+00   2.3951E+01  0.000E+00  0.000E+00  0.000E+00  1.09422E+03  1.172E+00  1.296E+01  5.831E-01  6.000E-01
   1    2    2     1     2    2.3951E+01  3.0661E+00   2.0884E+01  0.000E+00  0.000E+00  0.000E+00  1.08920E+03  1.140E+00  1.253E+01  8.772E-01  1.165E+00
   1    3    3     1     3    2.0884E+01  2.9036E+00   1.7981E+01  0.000E+00  0.000E+00  0.000E+00  1.08351E+03  1.091E+00  1.183E+01  7.098E-01  1.364E+00
   1    3    4     1     4    1.7981E+01  2.4663E+00   1.5515E+01  0.000E+00  0.000E+00  0.000E+00  1.07845E+03  1.045E+00  1.099E+01  6.097E-01  1.348E+00
   1    4    5     2     1    5.5146E+00  2.6622E+00   2.8524E+00  0.000E+00  0.000E+00  0.000E+00  1.07235E+03  4.131E-01  1.200E+01  7.800E-01  1.138E+00
   1    5    6     2     2    2.8524E+00  1.9532E+00   8.9918E-01  0.000E+00  0.000E+00  0.000E+00  1.06676E+03  2.553E-01  1.200E+01  6.000E-01  1.085E+00
   1    6    6     2     3    8.9918E-01  8.9918E-01   0.0000E+00  0.000E+00  0.000E+00  0.000E+00  1.06183E+03  3.695E-02  1.200E+01  6.000E-01  1.012E+00
   1    7    6     2     4    0.0000E+00  0.0000E+00   0.0000E+00  0.000E+00  0.000E+00  0.000E+00  1.05708E+03  0.000E+00  1.200E+01  6.000E-01  1.000E+00
   1    8    6     2     5    0.0000E+00  0.0000E+00   0.0000E+00  0.000E+00  0.000E+00  0.000E+00  1.05236E+03  0.000E+00  1.200E+01  6.000E-01  1.000E+00
   1    3    5     3     1    1.0000E+01  2.8252E+00   7.1748E+00  0.000E+00  0.000E+00  0.000E+00  1.07555E+03  1.909E+00  9.636E+00  7.227E-01  1.955E+00
   1    3    6     3     2    7.1748E+00  1.6813E+00   5.4935E+00  0.000E+00  0.000E+00  0.000E+00  1.07264E+03  1.727E+00  8.909E+00  6.682E-01  1.258E+00
   1    3    7     3     3    5.4935E+00  7.4118E-01   4.7524E+00  0.000E+00  0.000E+00  0.000E+00  1.06987E+03  1.555E+00  8.218E+00  5.547E-01  6.681E-01
   1    4    8     3     4    4.7524E+00  1.5175E+00   3.2348E+00  0.000E+00  0.000E+00  0.000E+00  1.06682E+03  1.364E+00  7.455E+00  6.709E-01  1.131E+00
   1    5    8     3     5    3.2348E+00  1.5790E+00   1.6559E+00  0.000E+00  0.000E+00  0.000E+00  1.06362E+03  1.164E+00  6.655E+00  4.991E-01  1.582E+00
   1    6    8     3     6    1.6559E+00  5.5980E-01   1.0961E+00  0.000E+00  0.000E+00  0.000E+00  1.06158E+03  1.036E+00  6.145E+00  1.844E-01  1.518E+00
   1    5   10     4     1    1.0000E+01  9.0525E-01   9.0947E+00  0.000E+00  0.000E+00  0.000E+00  1.07835E+03  6.210E-01  1.000E+01  2.500E-01  1.207E+00
   1    5    9     4     2    9.0947E+00  1.7835E+00   7.3113E+00  0.000E+00  0.000E+00  0.000E+00  1.07148E+03  5.670E-01  1.000E+01  5.000E-01  1.189E+00
   1    6    8     4     3    7.3113E+00  1.2257E+00   6.0855E+00  0.000E+00  0.000E+00  0.000E+00  1.06368E+03  5.021E-01  1.000E+01  3.500E-01  1.167E+00
   1    6    8     5     1    7.1816E+00  9.4444E-01   6.2372E+00  0.000E+00  0.000E+00  0.000E+00  1.05858E+03  5.841E-01  1.191E+01  4.763E-01  6.610E-01
   1    7    7     5     2    6.2372E+00  1.8330E+00   4.4042E+00  0.000E+00  0.000E+00  0.000E+00  1.05404E+03  5.385E-01  1.036E+01  5.180E-01  1.180E+00
   1    8    7     5     3    4.4042E+00  1.0450E+00   3.3592E+00  0.000E+00  0.000E+00  0.000E+00  1.04973E+03  4.823E-01  8.574E+00  3.001E-01  1.161E+00
   1    8    6     5     4    3.3592E+00  6.3738E-01   2.7218E+00  0.000E+00  0.000E+00  0.000E+00  1.04669E+03  4.427E-01  7.406E+00  1.851E-01  1.148E+00
   1    9    6     6     1    2.7218E+00  1.9485E+00   7.7332E-01  0.000E+00  0.000E+00  0.000E+00  1.04297E+03  2.474E-01  1.200E+01  6.000E-01  1.082E+00
   1   10    7     6     2    7.7332E-01  7.7332E-01   0.0000E+00  0.000E+00  0.000E+00  0.000E+00  1.03822E+03  3.413E-02  1.200E+01  6.000E-01  1.011E+00
   1   11    7     6     3    0.0000E+00  0.0000E+00   0.0000E+00  0.000E+00  0.000E+00  0.000E+00  1.03364E+03  0.000E+00  1.200E+01  6.000E-01  1.000E+00
   1   12    7     6     4    0.0000E+00  0.0000E+00   0.0000E+00  0.000E+00  0.000E+00  0.000E+00  1.02909E+03  0.000E+00  1.200E+01  6.000E-01  2.812E-01
   1   13    7     6     5    0.0000E+00 -8.0461E-01   8.0461E-01  0.000E+00  0.000E+00  0.000E+00  1.02591E+03  0.000E+00  1.200E+01  2.400E-01 -1.118E+00
   1   14    9     7     1    1.5000E+02  2.0429E+00   1.4796E+02  0.000E+00  0.000E+00  0.000E+00  1.03987E+03  2.286E+00  5.529E+01  5.592E+00  1.218E-01
   1   13    8     7     2    1.4796E+02  2.9908E+00   1.4497E+02  0.000E+00  0.000E+00  0.000E+00  1.03477E+03  2.272E+00  5.523E+01  6.144E+00  1.623E-01
   1   13    7     7     3    1.4497E+02  2.3201E+00   1.4265E+02  0.000E+00  0.000E+00  0.000E+00  1.02968E+03  2.258E+00  5.516E+01  5.578E+00  1.386E-01
   1   13    6     8     1    1.4345E+02  6.5456E-01   1.4280E+02  0.000E+00  0.000E+00  0.000E+00  1.02464E+03  2.768E+00  4.013E+01  4.090E+00  5.335E-02
   1   13    5     8     2    1.4280E+02 -2.0332E+00   1.4483E+02  0.000E+00  0.000E+00  0.000E+00  1.01840E+03  2.773E+00  4.020E+01  4.097E+00 -1.654E-01
   1   13    4     8     3    1.4483E+02 -3.7760E+00   1.4861E+02  0.000E+00  0.000E+00  0.000E+00  1.01217E+03  2.794E+00  4.051E+01  4.128E+00 -3.049E-01
   1   13    3     8     4    1.4861E+02 -4.0285E+00   1.5263E+02  0.000E+00  0.000E+00  0.000E+00  1.00595E+03  2.821E+00  4.091E+01  4.169E+00 -3.221E-01
   1   13    2     8     5    1.5263E+02 -2.0772E+00   1.5471E+02  0.000E+00  0.000E+00  0.000E+00  9.99718E+02  2.843E+00  4.122E+01  4.200E+00 -1.649E-01
   1   13    1     8     6    1.5471E+02 -5.6584E-01   1.5528E+02  0.000E+00  0.000E+00  0.000E+00  9.94727E+02  2.852E+00  4.135E+01  2.528E+00 -7.461E-02



1
  VOLUMETRIC BUDGET FOR ENTIRE MODEL AT END OF TIME STEP 10 IN STRESS PERIOD   8
  ------------------------------------------------------------------------------

     CUMULATIVE VOLUMES      L**3       RATES FOR THIS TIME STEP      L**3/T
     ------------------                 ------------------------

           IN:                                      IN:
           ---                                      ---
             STORAGE =    70307144.0000               STORAGE =           1.8880
       CONSTANT HEAD =           0.0000         CONSTANT HEAD =           0.0000
               WELLS =           0.0000                 WELLS =           0.0000
     HEAD DEP BOUNDS =     4117910.0000       HEAD DEP BOUNDS =           0.2090
        UZF RECHARGE =   263481024.0000          UZF RECHARGE =          11.4570
               GW ET =           0.0000                 GW ET =           0.0000
     SURFACE LEAKAGE =           0.0000       SURFACE LEAKAGE =           0.0000
      STREAM LEAKAGE =   850542592.0000        STREAM LEAKAGE =          43.0084

            TOTAL IN =  1188448640.0000              TOTAL IN =          56.5623

          OUT:                                     OUT:
          ----                                     ----
             STORAGE =   293827104.0000               STORAGE =          24.9091
       CONSTANT HEAD =           0.0000         CONSTANT HEAD =           0.0000
               WELLS =   289079936.0000                 WELLS =           0.0000
     HEAD DEP BOUNDS =     5195566.5000       HEAD DEP BOUNDS =           0.2641
        UZF RECHARGE =           0.0000          UZF RECHARGE =           0.0000
               GW ET =   333906400.0000                 GW ET =          18.0733
     SURFACE LEAKAGE =           0.0000       SURFACE LEAKAGE =           0.0000
      STREAM LEAKAGE =   265850528.0000        STREAM LEAKAGE =          13.2853

           TOTAL OUT =  1187859584.0000             TOTAL OUT =          56.5318

            IN - OUT =      589056.0000              IN - OUT =       3.0521E-02

 PERCENT DISCREPANCY =           0.05     PERCENT DISCREPANCY =           0.05






          TIME SUMMARY AT END OF TIME STEP  10 IN STRESS PERIOD    8
                    SECONDS     MINUTES      HOURS       DAYS        YEARS
                    -----------------------------------------------------------
   TIME STEP LENGTH 1.95033E+05  3250.6      54.176      2.2573     6.18023E-03
 STRESS PERIOD TIME 1.31823E+06  21971.      366.18      15.257     4.17723E-02
         TOTAL TIME 1.97142E+07 3.28570E+05  5476.2      228.17     0.62471    
1
 
 SOLVING FOR HEAD 
     7 ITERATIONS FOR TIME STEP  11 IN STRESS PERIOD    8

 MAXIMUM HEAD CHANGE FOR EACH ITERATION:

    HEAD CHANGE   HEAD CHANGE   HEAD CHANGE   HEAD CHANGE   HEAD CHANGE
  LAYER,ROW,COL LAYER,ROW,COL LAYER,ROW,COL LAYER,ROW,COL LAYER,ROW,COL
 ----------------------------------------------------------------------
     0.5285E-01    0.1765E-01    0.5915E-02    0.1977E-02    0.6599E-03
  (  1,  8,  4) (  1,  8,  4) (  1,  8,  4) (  1,  8,  4) (  1,  8,  4)
     0.2418E-03    0.1147E-03
  (  1,  2,  7) (  1,  2,  7)


 NO OUTPUT CONTROL FOR STRESS PERIOD    8   TIME STEP  11
 
 SOLVING FOR HEAD 
     7 ITERATIONS FOR TIME STEP  12 IN STRESS PERIOD    8

 MAXIMUM HEAD CHANGE FOR EACH ITERATION:

    HEAD CHANGE   HEAD CHANGE   HEAD CHANGE   HEAD CHANGE   HEAD CHANGE
  LAYER,ROW,COL LAYER,ROW,COL LAYER,ROW,COL LAYER,ROW,COL LAYER,ROW,COL
 ----------------------------------------------------------------------
     0.5716E-01    0.1913E-01    0.6376E-02    0.2096E-02    0.7071E-03
  (  1,  8,  4) (  1,  8,  4) (  1,  8,  4) (  1,  7,  4) (  1,  8,  4)
     0.2805E-03    0.1216E-03
  (  1,  8,  4) (  1,  2,  7)


 NO OUTPUT CONTROL FOR STRESS PERIOD    8   TIME STEP  12
 
 SOLVING FOR HEAD 
     7 ITERATIONS FOR TIME STEP  13 IN STRESS PERIOD    8

 MAXIMUM HEAD CHANGE FOR EACH ITERATION:

    HEAD CHANGE   HEAD CHANGE   HEAD CHANGE   HEAD CHANGE   HEAD CHANGE
  LAYER,ROW,COL LAYER,ROW,COL LAYER,ROW,COL LAYER,ROW,COL LAYER,ROW,COL
 ----------------------------------------------------------------------
     0.6155E-01    0.2054E-01    0.6903E-02    0.2264E-02    0.7745E-03
  (  1,  8,  4) (  1,  8,  4) (  1,  8,  4) (  1,  8,  4) (  1,  8,  4)
     0.2355E-03    0.1215E-03
  (  1,  8,  4) (  1,  8,  4)


 NO OUTPUT CONTROL FOR STRESS PERIOD    8   TIME STEP  13
 
 SOLVING FOR HEAD 
     7 ITERATIONS FOR TIME STEP  14 IN STRESS PERIOD    8

 MAXIMUM HEAD CHANGE FOR EACH ITERATION:

    HEAD CHANGE   HEAD CHANGE   HEAD CHANGE   HEAD CHANGE   HEAD CHANGE
  LAYER,ROW,COL LAYER,ROW,COL LAYER,ROW,COL LAYER,ROW,COL LAYER,ROW,COL
 ----------------------------------------------------------------------
     0.6623E-01    0.2212E-01    0.7411E-02    0.2447E-02    0.8358E-03
  (  1,  8,  4) (  1,  8,  4) (  1,  8,  4) (  1,  8,  4) (  1,  8,  4)
     0.2561E-03    0.1283E-03
  (  1,  8,  4) (  1,  7,  4)


 NO OUTPUT CONTROL FOR STRESS PERIOD    8   TIME STEP  14
 
 SOLVING FOR HEAD 
     7 ITERATIONS FOR TIME STEP  15 IN STRESS PERIOD    8

 MAXIMUM HEAD CHANGE FOR EACH ITERATION:

    HEAD CHANGE   HEAD CHANGE   HEAD CHANGE   HEAD CHANGE   HEAD CHANGE
  LAYER,ROW,COL LAYER,ROW,COL LAYER,ROW,COL LAYER,ROW,COL LAYER,ROW,COL
 ----------------------------------------------------------------------
     0.7094E-01    0.2374E-01    0.7845E-02    0.2629E-02    0.9062E-03
  (  1,  8,  4) (  1,  8,  4) (  1,  8,  4) (  1,  8,  4) (  1,  8,  4)
     0.2786E-03    0.1392E-03
  (  1,  8,  4) (  1,  9,  4)


 OUTPUT CONTROL FOR STRESS PERIOD    8   TIME STEP  15
    PRINT BUDGET
    PRINT HEAD FOR ALL LAYERS
    SAVE HEAD FOR ALL LAYERS
    SAVE BUDGET

  HEAD DEP BOUNDS   PERIOD    8   STEP  15
 BOUNDARY      1   LAYER   1   ROW    13   COL     1   RATE   -0.263830    
 BOUNDARY      2   LAYER   1   ROW    14   COL     9   RATE    0.208959    
 UBDSV3 SAVING "           GW ET" ON UNIT  61 AT TIME STEP 15, STRESS PERIOD   8
 UBDSV3 SAVING "    UZF INFILTR." ON UNIT  61 AT TIME STEP 15, STRESS PERIOD   8
 UBDSV3 SAVING "    UZF RECHARGE" ON UNIT  61 AT TIME STEP 15, STRESS PERIOD   8
 UBDSV3 SAVING " SURFACE LEAKAGE" ON UNIT  61 AT TIME STEP 15, STRESS PERIOD   8


UNSATURATED ZONE PACKAGE VOLUMETRIC BUDGET FOR  TIME STEP   15 STRESS PERIOD    8
  ------------------------------------------------------------------------------



     CUMULATIVE VOLUMES      L**3       RATES FOR THIS TIME STEP      L**3/T
     ------------------                 ------------------------

           IN:                                      IN:
           ---                                      ---
        INFILTRATION =  1380882487.2513          INFILTRATION =          42.3750

          OUT:                                     OUT:
          ----                                     ----
              UZF ET =  1616974781.8714                UZF ET =          66.7390
        UZF RECHARGE =   278042086.3916          UZF RECHARGE =          10.9583

            IN - OUT =  -514134381.0117              IN - OUT =         -35.3223

          STORAGE:                                 STORAGE:
          --------                                 --------
      STORAGE CHANGE =  -513931214.3943        STORAGE CHANGE =         -35.3203

 PERCENT DISCREPANCY IS DIFFERENCE BETWEEN IN-OUT MINUS CHANGE IN STORAGE
 DIVIDED BY THE AVERAGE OF IN AND OUT TIMES 100

 PERCENT DISCREPANCY =           0.00     PERCENT DISCREPANCY =           0.00









 STREAM LISTING     PERIOD      8   STEP       15

 LAYER ROW COL. STREAM  RCH.  FLOW INTO     FLOW TO   FLOW OUT OF   OVRLND.     DIRECT     STREAM       STREAM     STREAM     STREAM   STREAMBED  STREAMBED
                SEG.NO.  NO.  STRM. RCH.    AQUIFER    STRM. RCH.    RUNOFF     PRECIP       ET          HEAD       DEPTH      WIDTH   CONDCTNC.   GRADIENT

   1    1    1     1     1    2.5000E+01  1.0533E+00   2.3947E+01  0.000E+00  0.000E+00  0.000E+00  1.09422E+03  1.172E+00  1.296E+01  5.831E-01  6.022E-01
   1    2    2     1     2    2.3947E+01  3.0661E+00   2.0881E+01  0.000E+00  0.000E+00  0.000E+00  1.08920E+03  1.140E+00  1.253E+01  8.772E-01  1.165E+00
   1    3    3     1     3    2.0881E+01  2.9032E+00   1.7977E+01  0.000E+00  0.000E+00  0.000E+00  1.08351E+03  1.091E+00  1.183E+01  7.097E-01  1.364E+00
   1    3    4     1     4    1.7977E+01  2.4660E+00   1.5511E+01  0.000E+00  0.000E+00  0.000E+00  1.07845E+03  1.045E+00  1.098E+01  6.097E-01  1.348E+00
   1    4    5     2     1    5.5114E+00  2.6621E+00   2.8493E+00  0.000E+00  0.000E+00  0.000E+00  1.07235E+03  4.129E-01  1.200E+01  7.800E-01  1.138E+00
   1    5    6     2     2    2.8493E+00  1.9530E+00   8.9624E-01  0.000E+00  0.000E+00  0.000E+00  1.06676E+03  2.551E-01  1.200E+01  6.000E-01  1.085E+00
   1    6    6     2     3    8.9624E-01  8.9624E-01   0.0000E+00  0.000E+00  0.000E+00  0.000E+00  1.06183E+03  3.688E-02  1.200E+01  6.000E-01  1.012E+00
   1    7    6     2     4    0.0000E+00  0.0000E+00   0.0000E+00  0.000E+00  0.000E+00  0.000E+00  1.05708E+03  0.000E+00  1.200E+01  6.000E-01  1.000E+00
   1    8    6     2     5    0.0000E+00  0.0000E+00   0.0000E+00  0.000E+00  0.000E+00  0.000E+00  1.05236E+03  0.000E+00  1.200E+01  6.000E-01  1.000E+00
   1    3    5     3     1    1.0000E+01  2.8252E+00   7.1748E+00  0.000E+00  0.000E+00  0.000E+00  1.07555E+03  1.909E+00  9.636E+00  7.227E-01  1.955E+00
   1    3    6     3     2    7.1748E+00  1.7692E+00   5.4056E+00  0.000E+00  0.000E+00  0.000E+00  1.07264E+03  1.727E+00  8.909E+00  6.682E-01  1.324E+00
   1    3    7     3     3    5.4056E+00  8.1298E-01   4.5926E+00  0.000E+00  0.000E+00  0.000E+00  1.06987E+03  1.555E+00  8.218E+00  5.547E-01  7.328E-01
   1    4    8     3     4    4.5926E+00  1.5263E+00   3.0663E+00  0.000E+00  0.000E+00  0.000E+00  1.06682E+03  1.364E+00  7.455E+00  6.709E-01  1.137E+00
   1    5    8     3     5    3.0663E+00  1.5790E+00   1.4873E+00  0.000E+00  0.000E+00  0.000E+00  1.06362E+03  1.164E+00  6.655E+00  4.991E-01  1.582E+00
   1    6    8     3     6    1.4873E+00  5.5980E-01   9.2751E-01  0.000E+00  0.000E+00  0.000E+00  1.06158E+03  1.036E+00  6.145E+00  1.844E-01  1.518E+00
   1    5   10     4     1    1.0000E+01  9.0525E-01   9.0947E+00  0.000E+00  0.000E+00  0.000E+00  1.07835E+03  6.210E-01  1.000E+01  2.500E-01  1.207E+00
   1    5    9     4     2    9.0947E+00  1.7835E+00   7.3113E+00  0.000E+00  0.000E+00  0.000E+00  1.07148E+03  5.670E-01  1.000E+01  5.000E-01  1.189E+00
   1    6    8     4     3    7.3113E+00  1.2257E+00   6.0855E+00  0.000E+00  0.000E+00  0.000E+00  1.06368E+03  5.021E-01  1.000E+01  3.500E-01  1.167E+00
   1    6    8     5     1    7.0131E+00  9.2168E-01   6.0914E+00  0.000E+00  0.000E+00  0.000E+00  1.05858E+03  5.792E-01  1.174E+01  4.695E-01  6.543E-01
   1    7    7     5     2    6.0914E+00  1.8034E+00   4.2880E+00  0.000E+00  0.000E+00  0.000E+00  1.05403E+03  5.339E-01  1.021E+01  5.103E-01  1.178E+00
   1    8    7     5     3    4.2880E+00  1.0263E+00   3.2617E+00  0.000E+00  0.000E+00  0.000E+00  1.04973E+03  4.776E-01  8.432E+00  2.951E-01  1.159E+00
   1    8    6     5     4    3.2617E+00  6.2498E-01   2.6367E+00  0.000E+00  0.000E+00  0.000E+00  1.04669E+03  4.380E-01  7.271E+00  1.818E-01  1.146E+00
   1    9    6     6     1    2.6367E+00  1.9442E+00   6.9254E-01  0.000E+00  0.000E+00  0.000E+00  1.04297E+03  2.403E-01  1.200E+01  6.000E-01  1.080E+00
   1   10    7     6     2    6.9254E-01  6.9254E-01   0.0000E+00  0.000E+00  0.000E+00  0.000E+00  1.03821E+03  3.195E-02  1.200E+01  6.000E-01  1.011E+00
   1   11    7     6     3    0.0000E+00  0.0000E+00   0.0000E+00  0.000E+00  0.000E+00  0.000E+00  1.03364E+03  0.000E+00  1.200E+01  6.000E-01  1.000E+00
   1   12    7     6     4    0.0000E+00  0.0000E+00   0.0000E+00  0.000E+00  0.000E+00  0.000E+00  1.02909E+03  0.000E+00  1.200E+01  6.000E-01  2.786E-01
   1   13    7     6     5    0.0000E+00 -8.0187E-01   8.0187E-01  0.000E+00  0.000E+00  0.000E+00  1.02591E+03  0.000E+00  1.200E+01  2.400E-01 -1.114E+00
   1   14    9     7     1    1.5000E+02  2.0437E+00   1.4796E+02  0.000E+00  0.000E+00  0.000E+00  1.03987E+03  2.286E+00  5.529E+01  5.592E+00  1.218E-01
   1   13    8     7     2    1.4796E+02  2.9964E+00   1.4496E+02  0.000E+00  0.000E+00  0.000E+00  1.03477E+03  2.272E+00  5.523E+01  6.144E+00  1.626E-01
   1   13    7     7     3    1.4496E+02  2.3825E+00   1.4258E+02  0.000E+00  0.000E+00  0.000E+00  1.02968E+03  2.258E+00  5.516E+01  5.578E+00  1.424E-01
   1   13    6     8     1    1.4338E+02  7.0071E-01   1.4268E+02  0.000E+00  0.000E+00  0.000E+00  1.02464E+03  2.767E+00  4.012E+01  4.089E+00  5.713E-02
   1   13    5     8     2    1.4268E+02 -2.0857E+00   1.4476E+02  0.000E+00  0.000E+00  0.000E+00  1.01840E+03  2.772E+00  4.019E+01  4.096E+00 -1.697E-01
   1   13    4     8     3    1.4476E+02 -3.8163E+00   1.4858E+02  0.000E+00  0.000E+00  0.000E+00  1.01217E+03  2.793E+00  4.050E+01  4.127E+00 -3.082E-01
   1   13    3     8     4    1.4858E+02 -4.0774E+00   1.5266E+02  0.000E+00  0.000E+00  0.000E+00  1.00595E+03  2.821E+00  4.091E+01  4.169E+00 -3.260E-01
   1   13    2     8     5    1.5266E+02 -2.0785E+00   1.5474E+02  0.000E+00  0.000E+00  0.000E+00  9.99718E+02  2.843E+00  4.122E+01  4.200E+00 -1.649E-01
   1   13    1     8     6    1.5474E+02 -5.4647E-01   1.5528E+02  0.000E+00  0.000E+00  0.000E+00  9.94727E+02  2.852E+00  4.135E+01  2.528E+00 -7.205E-02



1
              HEAD IN LAYER   1 AT END OF TIME STEP  15 IN STRESS PERIOD    8
  ---------------------------------------------------------------------------

           1       2       3       4       5       6       7       8       9      10
 ...................................................................................
   1  1092.41 1088.66 6999.00 6999.00 6999.00 6999.00 6999.00 6999.00 6999.00 6999.00
   2  1089.09 1085.70 1079.24 6999.00 6999.00 1074.03 1072.98 1070.69 6999.00 6999.00
   3  6999.00 1077.39 1074.45 1070.33 1071.24 1069.99 1068.41 1068.08 6999.00 6999.00
   4  1067.84 1068.44 1066.81 1063.36 1062.24 1060.97 1061.70 1064.54 1063.86 6999.00
   5  1063.70 1061.37 1058.88 1057.02 1056.77 1057.36 1057.28 1059.43 1062.92 1065.35
   6  1059.02 1055.45 1052.52 1051.13 1051.44 1052.80 1054.15 1056.62 1059.44 1063.69
   7  1055.36 1049.80 1046.70 1045.56 1046.20 1047.86 1050.39 1052.83 1054.20 6999.00
   8  6999.00 1042.46 1040.65 1040.02 1040.92 1042.79 1044.70 1047.25 1049.18 6999.00
   9  6999.00 1035.51 1034.65 1034.65 1035.86 1037.90 1038.90 1040.80 1043.76 6999.00
  10  6999.00 1028.46 1028.64 1029.66 1031.11 1032.92 1034.35 1036.31 1040.04 1044.38
  11  6999.00 1019.68 1021.28 1024.72 1026.78 1028.92 1030.51 1032.85 1036.31 6999.00
  12  1001.19 1008.85 1014.06 1018.88 1022.53 1025.80 1028.26 1031.10 1034.88 6999.00
  13   994.94 1000.21 1006.92 1013.09 1018.91 1024.47 1029.25 1034.28 1036.40 6999.00
  14  6999.00 1005.83 1011.52 1016.24 1021.27 1025.99 1030.27 1035.29 1039.50 6999.00
  15  6999.00 6999.00 1018.84 1021.83 1025.57 1028.54 6999.00 6999.00 6999.00 6999.00

 HEAD WILL BE SAVED ON UNIT   58 AT END OF TIME STEP  15, STRESS PERIOD    8
1
  VOLUMETRIC BUDGET FOR ENTIRE MODEL AT END OF TIME STEP 15 IN STRESS PERIOD   8
  ------------------------------------------------------------------------------

     CUMULATIVE VOLUMES      L**3       RATES FOR THIS TIME STEP      L**3/T
     ------------------                 ------------------------

           IN:                                      IN:
           ---                                      ---
             STORAGE =    72252528.0000               STORAGE =           1.1401
       CONSTANT HEAD =           0.0000         CONSTANT HEAD =           0.0000
               WELLS =           0.0000                 WELLS =           0.0000
     HEAD DEP BOUNDS =     4391594.5000       HEAD DEP BOUNDS =           0.2090
        UZF RECHARGE =   278042080.0000          UZF RECHARGE =          10.9583
               GW ET =           0.0000                 GW ET =           0.0000
     SURFACE LEAKAGE =           0.0000       SURFACE LEAKAGE =           0.0000
      STREAM LEAKAGE =   906970432.0000        STREAM LEAKAGE =          43.1233

            TOTAL IN =  1261656576.0000              TOTAL IN =          55.4307

          OUT:                                     OUT:
          ----                                     ----
             STORAGE =   325493504.0000               STORAGE =          23.6602
       CONSTANT HEAD =           0.0000         CONSTANT HEAD =           0.0000
               WELLS =   289079936.0000                 WELLS =           0.0000
     HEAD DEP BOUNDS =     5541284.0000       HEAD DEP BOUNDS =           0.2638
        UZF RECHARGE =           0.0000          UZF RECHARGE =           0.0000
               GW ET =   357566816.0000                 GW ET =          18.0647
     SURFACE LEAKAGE =           0.0000       SURFACE LEAKAGE =           0.0000
      STREAM LEAKAGE =   283363968.0000        STREAM LEAKAGE =          13.4062

           TOTAL OUT =  1261045504.0000             TOTAL OUT =          55.3949

            IN - OUT =      611072.0000              IN - OUT =       3.5740E-02

 PERCENT DISCREPANCY =           0.05     PERCENT DISCREPANCY =           0.06






          TIME SUMMARY AT END OF TIME STEP  15 IN STRESS PERIOD    8
                    SECONDS     MINUTES      HOURS       DAYS        YEARS
                    -----------------------------------------------------------
   TIME STEP LENGTH 3.14103E+05  5235.0      87.251      3.6354     9.95332E-03
 STRESS PERIOD TIME 2.62800E+06  43800.      730.00      30.417     8.32763E-02
         TOTAL TIME 2.10240E+07 3.50400E+05  5840.0      243.33     0.66621    
1
1
                            STRESS PERIOD NO.    9, LENGTH =   2628000.    
                            -----------------------------------------------

                              NUMBER OF TIME STEPS =    15

                               MULTIPLIER FOR DELT =     1.100

                            INITIAL TIME STEP SIZE =   82713.07    

 WELL NO.  LAYER   ROW   COL   STRESS RATE         
 --------------------------------------------------
      1      1      6      4      -1.000    
      2      1      6      5      -1.000    
      3      1      7      4      -1.000    
      4      1      7      5      -1.000    
      5      1      8      4      -1.000    
      6      1      8      5      -1.000    
      7      1      9      4      -1.000    
      8      1      9      5      -1.000    
      9      1     10      4      -1.000    
     10      1     10      5      -1.000    

     10 WELLS

 REUSING NON-PARAMETER GHB CELLS FROM LAST STRESS PERIOD

      2 GHB CELLS

 REUSING STREAM SEGMENT DATA FROM LAST STRESS PERIOD



            AREAL INFILTRATION RATE
 READING ON UNIT   19 WITH FORMAT: (10F4.0)            

            1           2           3           4           5           6           7           8           9          10
 ........................................................................................................................
   1   3.0000E-09  6.0000E-09   0.000       0.000       0.000       0.000       0.000       0.000       0.000       0.000    
   2   6.0000E-09  3.0000E-09  6.0000E-09   0.000       0.000      2.4000E-08  2.4000E-08  1.5000E-08   0.000       0.000    
   3    0.000      1.5000E-08  3.0000E-09  3.0000E-09  2.4000E-08  2.4000E-08  1.5000E-08  1.5000E-08   0.000       0.000    
   4   2.4000E-08  1.5000E-08  3.0000E-09  3.0000E-09  3.0000E-09  3.0000E-09  3.0000E-09  3.0000E-09  6.0000E-09   0.000    
   5   2.4000E-08  1.5000E-08  3.0000E-09  3.0000E-09  3.0000E-09  3.0000E-09  3.0000E-09  3.0000E-09  3.0000E-09  3.0000E-09
   6   2.4000E-08  1.5000E-08  1.5000E-08  6.0000E-09  6.0000E-09  3.0000E-09  3.0000E-09  3.0000E-09  3.0000E-09  1.5000E-08
   7   2.4000E-08  1.5000E-08  1.5000E-08  6.0000E-09  6.0000E-09  3.0000E-09  3.0000E-09  6.0000E-09  6.0000E-09   0.000    
   8    0.000      1.5000E-08  1.5000E-08  6.0000E-09  6.0000E-09  3.0000E-09  3.0000E-09  6.0000E-09  1.5000E-08   0.000    
   9    0.000      1.5000E-08  1.5000E-08  6.0000E-09  6.0000E-09  3.0000E-09  3.0000E-09  6.0000E-09  1.5000E-08   0.000    
  10    0.000      1.5000E-08  1.5000E-08  6.0000E-09  6.0000E-09  3.0000E-09  3.0000E-09  6.0000E-09  1.5000E-08  2.4000E-08
  11    0.000      3.0000E-09  3.0000E-09  3.0000E-09  3.0000E-09  3.0000E-09  3.0000E-09  6.0000E-09  1.5000E-08   0.000    
  12   3.0000E-09  3.0000E-09  3.0000E-09  3.0000E-09  3.0000E-09  3.0000E-09  3.0000E-09  3.0000E-09  6.0000E-09   0.000    
  13   3.0000E-09  3.0000E-09  6.0000E-09  6.0000E-09  6.0000E-09  6.0000E-09  6.0000E-09  3.0000E-09  3.0000E-09   0.000    
  14    0.000      6.0000E-09  1.5000E-08  1.5000E-08  1.5000E-08  1.5000E-08  1.5000E-08  6.0000E-09  3.0000E-09   0.000    
  15    0.000       0.000      2.4000E-08  2.4000E-08  2.4000E-08  2.4000E-08   0.000       0.000       0.000       0.000    

USING ET RATE FROM PREVIOUS STRESS PERIOD. CURRENT PERIOD IS:       9

 USING ET EXTINCTION DEPTH FROM PREVIOUS STRESS PERIOD. CURRENT PERIOD IS:       9

 USING EXTINCTION WATER CONTENT FROM PREVIOUS STRESS PERIOD. CURRENT PERIOD IS:       9
 
 SOLVING FOR HEAD 

     5 ITERATIONS FOR TIME STEP   1 IN STRESS PERIOD    9

 MAXIMUM HEAD CHANGE FOR EACH ITERATION:

    HEAD CHANGE   HEAD CHANGE   HEAD CHANGE   HEAD CHANGE   HEAD CHANGE
  LAYER,ROW,COL LAYER,ROW,COL LAYER,ROW,COL LAYER,ROW,COL LAYER,ROW,COL
 ----------------------------------------------------------------------
    -0.7713E-02   -0.2644E-02    0.1025E-02    0.4032E-03    0.1794E-03
  (  1,  3,  5) (  1,  3,  5) (  1,  3,  6) (  1,  3,  6) (  1,  3,  6)


 NO OUTPUT CONTROL FOR STRESS PERIOD    9   TIME STEP   1
 
 SOLVING FOR HEAD 
     6 ITERATIONS FOR TIME STEP   2 IN STRESS PERIOD    9

 MAXIMUM HEAD CHANGE FOR EACH ITERATION:

    HEAD CHANGE   HEAD CHANGE   HEAD CHANGE   HEAD CHANGE   HEAD CHANGE
  LAYER,ROW,COL LAYER,ROW,COL LAYER,ROW,COL LAYER,ROW,COL LAYER,ROW,COL
 ----------------------------------------------------------------------
    -0.8181E-02   -0.2844E-02    0.1065E-02    0.4838E-03    0.2600E-03
  (  1,  3,  5) (  1,  3,  5) (  1,  3,  6) (  1,  3,  6) (  1,  3,  6)
     0.1064E-03
  (  1,  3,  6)


 NO OUTPUT CONTROL FOR STRESS PERIOD    9   TIME STEP   2
 
 SOLVING FOR HEAD 
     6 ITERATIONS FOR TIME STEP   3 IN STRESS PERIOD    9

 MAXIMUM HEAD CHANGE FOR EACH ITERATION:

    HEAD CHANGE   HEAD CHANGE   HEAD CHANGE   HEAD CHANGE   HEAD CHANGE
  LAYER,ROW,COL LAYER,ROW,COL LAYER,ROW,COL LAYER,ROW,COL LAYER,ROW,COL
 ----------------------------------------------------------------------
    -0.8663E-02   -0.3052E-02    0.1009E-02    0.4954E-03    0.2178E-03
  (  1,  3,  5) (  1,  3,  5) (  1,  9,  3) (  1,  3,  6) (  1,  3,  6)
     0.1031E-03
  (  1,  3,  6)


 NO OUTPUT CONTROL FOR STRESS PERIOD    9   TIME STEP   3
 
 SOLVING FOR HEAD 
     6 ITERATIONS FOR TIME STEP   4 IN STRESS PERIOD    9

 MAXIMUM HEAD CHANGE FOR EACH ITERATION:

    HEAD CHANGE   HEAD CHANGE   HEAD CHANGE   HEAD CHANGE   HEAD CHANGE
  LAYER,ROW,COL LAYER,ROW,COL LAYER,ROW,COL LAYER,ROW,COL LAYER,ROW,COL
 ----------------------------------------------------------------------
    -0.9167E-02   -0.3140E-02   -0.1131E-02    0.5441E-03    0.2389E-03
  (  1,  3,  5) (  1,  3,  5) (  1,  3,  5) (  1,  3,  6) (  1,  3,  6)
     0.1134E-03
  (  1,  3,  6)


 NO OUTPUT CONTROL FOR STRESS PERIOD    9   TIME STEP   4
 
 SOLVING FOR HEAD 
     8 ITERATIONS FOR TIME STEP   5 IN STRESS PERIOD    9

 MAXIMUM HEAD CHANGE FOR EACH ITERATION:

    HEAD CHANGE   HEAD CHANGE   HEAD CHANGE   HEAD CHANGE   HEAD CHANGE
  LAYER,ROW,COL LAYER,ROW,COL LAYER,ROW,COL LAYER,ROW,COL LAYER,ROW,COL
 ----------------------------------------------------------------------
     0.1760E-01    0.9012E-02    0.4661E-02    0.2362E-02    0.1225E-02
  (  1,  4,  1) (  1,  4,  1) (  1,  4,  1) (  1,  4,  1) (  1,  4,  1)
     0.6210E-03    0.3499E-03    0.1452E-03
  (  1,  4,  1) (  1,  4,  1) (  1,  4,  1)


 OUTPUT CONTROL FOR STRESS PERIOD    9   TIME STEP   5
    PRINT BUDGET
    SAVE BUDGET

            WELLS   PERIOD    9   STEP   5
 WELL      1   LAYER   1   ROW     6   COL     4   RATE    -1.00000    
 WELL      2   LAYER   1   ROW     6   COL     5   RATE    -1.00000    
 WELL      3   LAYER   1   ROW     7   COL     4   RATE    -1.00000    
 WELL      4   LAYER   1   ROW     7   COL     5   RATE    -1.00000    
 WELL      5   LAYER   1   ROW     8   COL     4   RATE    -1.00000    
 WELL      6   LAYER   1   ROW     8   COL     5   RATE    -1.00000    
 WELL      7   LAYER   1   ROW     9   COL     4   RATE    -1.00000    
 WELL      8   LAYER   1   ROW     9   COL     5   RATE    -1.00000    
 WELL      9   LAYER   1   ROW    10   COL     4   RATE    -1.00000    
 WELL     10   LAYER   1   ROW    10   COL     5   RATE    -1.00000    

  HEAD DEP BOUNDS   PERIOD    9   STEP   5
 BOUNDARY      1   LAYER   1   ROW    13   COL     1   RATE   -0.263700    
 BOUNDARY      2   LAYER   1   ROW    14   COL     9   RATE    0.208962    
 UBDSV3 SAVING "           GW ET" ON UNIT  61 AT TIME STEP  5, STRESS PERIOD   9
 UBDSV3 SAVING "    UZF INFILTR." ON UNIT  61 AT TIME STEP  5, STRESS PERIOD   9
 UBDSV3 SAVING "    UZF RECHARGE" ON UNIT  61 AT TIME STEP  5, STRESS PERIOD   9
 UBDSV3 SAVING " SURFACE LEAKAGE" ON UNIT  61 AT TIME STEP  5, STRESS PERIOD   9


UNSATURATED ZONE PACKAGE VOLUMETRIC BUDGET FOR  TIME STEP    5 STRESS PERIOD    9
  ------------------------------------------------------------------------------



     CUMULATIVE VOLUMES      L**3       RATES FOR THIS TIME STEP      L**3/T
     ------------------                 ------------------------

           IN:                                      IN:
           ---                                      ---
        INFILTRATION =  1393721389.7172          INFILTRATION =          25.4250

          OUT:                                     OUT:
          ----                                     ----
              UZF ET =  1650705470.8783                UZF ET =          66.8210
        UZF RECHARGE =   282887108.6565          UZF RECHARGE =          10.3362

            IN - OUT =  -539871189.8176              IN - OUT =         -51.7321

          STORAGE:                                 STORAGE:
          --------                                 --------
      STORAGE CHANGE =  -539667810.5935        STORAGE CHANGE =         -51.7307

 PERCENT DISCREPANCY IS DIFFERENCE BETWEEN IN-OUT MINUS CHANGE IN STORAGE
 DIVIDED BY THE AVERAGE OF IN AND OUT TIMES 100

 PERCENT DISCREPANCY =           0.00     PERCENT DISCREPANCY =           0.00









 STREAM LISTING     PERIOD      9   STEP        5

 LAYER ROW COL. STREAM  RCH.  FLOW INTO     FLOW TO   FLOW OUT OF   OVRLND.     DIRECT     STREAM       STREAM     STREAM     STREAM   STREAMBED  STREAMBED
                SEG.NO.  NO.  STRM. RCH.    AQUIFER    STRM. RCH.    RUNOFF     PRECIP       ET          HEAD       DEPTH      WIDTH   CONDCTNC.   GRADIENT

   1    1    1     1     1    2.5000E+01  1.0546E+00   2.3945E+01  0.000E+00  0.000E+00  0.000E+00  1.09422E+03  1.172E+00  1.296E+01  5.831E-01  6.029E-01
   1    2    2     1     2    2.3945E+01  3.0660E+00   2.0879E+01  0.000E+00  0.000E+00  0.000E+00  1.08920E+03  1.140E+00  1.253E+01  8.772E-01  1.165E+00
   1    3    3     1     3    2.0879E+01  2.9031E+00   1.7976E+01  0.000E+00  0.000E+00  0.000E+00  1.08351E+03  1.091E+00  1.183E+01  7.097E-01  1.364E+00
   1    3    4     1     4    1.7976E+01  2.4659E+00   1.5510E+01  0.000E+00  0.000E+00  0.000E+00  1.07845E+03  1.045E+00  1.098E+01  6.096E-01  1.348E+00
   1    4    5     2     1    5.5104E+00  2.6620E+00   2.8484E+00  0.000E+00  0.000E+00  0.000E+00  1.07235E+03  4.129E-01  1.200E+01  7.800E-01  1.138E+00
   1    5    6     2     2    2.8484E+00  1.9530E+00   8.9536E-01  0.000E+00  0.000E+00  0.000E+00  1.06676E+03  2.550E-01  1.200E+01  6.000E-01  1.085E+00
   1    6    6     2     3    8.9536E-01  8.9536E-01   0.0000E+00  0.000E+00  0.000E+00  0.000E+00  1.06183E+03  3.686E-02  1.200E+01  6.000E-01  1.012E+00
   1    7    6     2     4    0.0000E+00  0.0000E+00   0.0000E+00  0.000E+00  0.000E+00  0.000E+00  1.05708E+03  0.000E+00  1.200E+01  6.000E-01  1.000E+00
   1    8    6     2     5    0.0000E+00  0.0000E+00   0.0000E+00  0.000E+00  0.000E+00  0.000E+00  1.05236E+03  0.000E+00  1.200E+01  6.000E-01  1.000E+00
   1    3    5     3     1    1.0000E+01  2.8252E+00   7.1748E+00  0.000E+00  0.000E+00  0.000E+00  1.07555E+03  1.909E+00  9.636E+00  7.227E-01  1.955E+00
   1    3    6     3     2    7.1748E+00  1.7377E+00   5.4371E+00  0.000E+00  0.000E+00  0.000E+00  1.07264E+03  1.727E+00  8.909E+00  6.682E-01  1.300E+00
   1    3    7     3     3    5.4371E+00  8.1857E-01   4.6186E+00  0.000E+00  0.000E+00  0.000E+00  1.06987E+03  1.555E+00  8.218E+00  5.547E-01  7.378E-01
   1    4    8     3     4    4.6186E+00  1.5287E+00   3.0898E+00  0.000E+00  0.000E+00  0.000E+00  1.06682E+03  1.364E+00  7.455E+00  6.709E-01  1.139E+00
   1    5    8     3     5    3.0898E+00  1.5790E+00   1.5109E+00  0.000E+00  0.000E+00  0.000E+00  1.06362E+03  1.164E+00  6.655E+00  4.991E-01  1.582E+00
   1    6    8     3     6    1.5109E+00  5.5980E-01   9.5106E-01  0.000E+00  0.000E+00  0.000E+00  1.06158E+03  1.036E+00  6.145E+00  1.844E-01  1.518E+00
   1    5   10     4     1    1.0000E+01  9.0525E-01   9.0947E+00  0.000E+00  0.000E+00  0.000E+00  1.07835E+03  6.210E-01  1.000E+01  2.500E-01  1.207E+00
   1    5    9     4     2    9.0947E+00  1.7835E+00   7.3113E+00  0.000E+00  0.000E+00  0.000E+00  1.07148E+03  5.670E-01  1.000E+01  5.000E-01  1.189E+00
   1    6    8     4     3    7.3113E+00  1.2257E+00   6.0855E+00  0.000E+00  0.000E+00  0.000E+00  1.06368E+03  5.021E-01  1.000E+01  3.500E-01  1.167E+00
   1    6    8     5     1    7.0366E+00  9.2086E-01   6.1157E+00  0.000E+00  0.000E+00  0.000E+00  1.05858E+03  5.800E-01  1.176E+01  4.706E-01  6.523E-01
   1    7    7     5     2    6.1157E+00  1.8084E+00   4.3074E+00  0.000E+00  0.000E+00  0.000E+00  1.05403E+03  5.346E-01  1.023E+01  5.116E-01  1.178E+00
   1    8    7     5     3    4.3074E+00  1.0294E+00   3.2780E+00  0.000E+00  0.000E+00  0.000E+00  1.04973E+03  4.784E-01  8.456E+00  2.960E-01  1.159E+00
   1    8    6     5     4    3.2780E+00  6.2706E-01   2.6509E+00  0.000E+00  0.000E+00  0.000E+00  1.04669E+03  4.388E-01  7.294E+00  1.823E-01  1.146E+00
   1    9    6     6     1    2.6509E+00  1.9449E+00   7.0600E-01  0.000E+00  0.000E+00  0.000E+00  1.04297E+03  2.415E-01  1.200E+01  6.000E-01  1.081E+00
   1   10    7     6     2    7.0600E-01  7.0600E-01   0.0000E+00  0.000E+00  0.000E+00  0.000E+00  1.03821E+03  3.232E-02  1.200E+01  6.000E-01  1.011E+00
   1   11    7     6     3    0.0000E+00  0.0000E+00   0.0000E+00  0.000E+00  0.000E+00  0.000E+00  1.03364E+03  0.000E+00  1.200E+01  6.000E-01  1.000E+00
   1   12    7     6     4    0.0000E+00  0.0000E+00   0.0000E+00  0.000E+00  0.000E+00  0.000E+00  1.02909E+03  0.000E+00  1.200E+01  6.000E-01  2.776E-01
   1   13    7     6     5    0.0000E+00 -8.0107E-01   8.0107E-01  0.000E+00  0.000E+00  0.000E+00  1.02591E+03  0.000E+00  1.200E+01  2.400E-01 -1.113E+00
   1   14    9     7     1    1.5000E+02  2.0440E+00   1.4796E+02  0.000E+00  0.000E+00  0.000E+00  1.03987E+03  2.286E+00  5.529E+01  5.592E+00  1.218E-01
   1   13    8     7     2    1.4796E+02  3.0000E+00   1.4496E+02  0.000E+00  0.000E+00  0.000E+00  1.03477E+03  2.272E+00  5.523E+01  6.144E+00  1.628E-01
   1   13    7     7     3    1.4496E+02  2.4009E+00   1.4256E+02  0.000E+00  0.000E+00  0.000E+00  1.02968E+03  2.258E+00  5.516E+01  5.578E+00  1.435E-01
   1   13    6     8     1    1.4336E+02  7.1252E-01   1.4264E+02  0.000E+00  0.000E+00  0.000E+00  1.02464E+03  2.767E+00  4.012E+01  4.088E+00  5.810E-02
   1   13    5     8     2    1.4264E+02 -2.0942E+00   1.4474E+02  0.000E+00  0.000E+00  0.000E+00  1.01840E+03  2.772E+00  4.019E+01  4.096E+00 -1.704E-01
   1   13    4     8     3    1.4474E+02 -3.8250E+00   1.4856E+02  0.000E+00  0.000E+00  0.000E+00  1.01217E+03  2.793E+00  4.050E+01  4.127E+00 -3.089E-01
   1   13    3     8     4    1.4856E+02 -4.0847E+00   1.5265E+02  0.000E+00  0.000E+00  0.000E+00  1.00595E+03  2.821E+00  4.091E+01  4.168E+00 -3.266E-01
   1   13    2     8     5    1.5265E+02 -2.0785E+00   1.5473E+02  0.000E+00  0.000E+00  0.000E+00  9.99718E+02  2.843E+00  4.122E+01  4.200E+00 -1.649E-01
   1   13    1     8     6    1.5473E+02 -5.3803E-01   1.5526E+02  0.000E+00  0.000E+00  0.000E+00  9.94727E+02  2.852E+00  4.135E+01  2.528E+00 -7.094E-02



1
  VOLUMETRIC BUDGET FOR ENTIRE MODEL AT END OF TIME STEP  5 IN STRESS PERIOD   9
  ------------------------------------------------------------------------------

     CUMULATIVE VOLUMES      L**3       RATES FOR THIS TIME STEP      L**3/T
     ------------------                 ------------------------

           IN:                                      IN:
           ---                                      ---
             STORAGE =    72721112.0000               STORAGE =           0.7140
       CONSTANT HEAD =           0.0000         CONSTANT HEAD =           0.0000
               WELLS =           0.0000                 WELLS =           0.0000
     HEAD DEP BOUNDS =     4497113.5000       HEAD DEP BOUNDS =           0.2090
        UZF RECHARGE =   282887104.0000          UZF RECHARGE =          10.3362
               GW ET =           0.0000                 GW ET =           0.0000
     SURFACE LEAKAGE =           0.0000       SURFACE LEAKAGE =           0.0000
      STREAM LEAKAGE =   928757504.0000        STREAM LEAKAGE =          43.1574

            TOTAL IN =  1288862848.0000              TOTAL IN =          54.4165

          OUT:                                     OUT:
          ----                                     ----
             STORAGE =   331571776.0000               STORAGE =          12.6188
       CONSTANT HEAD =           0.0000         CONSTANT HEAD =           0.0000
               WELLS =   294129664.0000                 WELLS =          10.0000
     HEAD DEP BOUNDS =     5674469.5000       HEAD DEP BOUNDS =           0.2637
        UZF RECHARGE =           0.0000          UZF RECHARGE =           0.0000
               GW ET =   366689536.0000                 GW ET =          18.0699
     SURFACE LEAKAGE =           0.0000       SURFACE LEAKAGE =           0.0000
      STREAM LEAKAGE =   290138368.0000        STREAM LEAKAGE =          13.4215

           TOTAL OUT =  1288203776.0000             TOTAL OUT =          54.3740

            IN - OUT =      659072.0000              IN - OUT =       4.2519E-02

 PERCENT DISCREPANCY =           0.05     PERCENT DISCREPANCY =           0.08






          TIME SUMMARY AT END OF TIME STEP   5 IN STRESS PERIOD    9
                    SECONDS     MINUTES      HOURS       DAYS        YEARS
                    -----------------------------------------------------------
   TIME STEP LENGTH 1.21100E+05  2018.3      33.639      1.4016     3.83743E-03
 STRESS PERIOD TIME 5.04972E+05  8416.2      140.27      5.8446     1.60016E-02
         TOTAL TIME 2.15290E+07 3.58816E+05  5980.3      249.18     0.68221    
1
 
 SOLVING FOR HEAD 
     9 ITERATIONS FOR TIME STEP   6 IN STRESS PERIOD    9

 MAXIMUM HEAD CHANGE FOR EACH ITERATION:

    HEAD CHANGE   HEAD CHANGE   HEAD CHANGE   HEAD CHANGE   HEAD CHANGE
  LAYER,ROW,COL LAYER,ROW,COL LAYER,ROW,COL LAYER,ROW,COL LAYER,ROW,COL
 ----------------------------------------------------------------------
     0.3249E-01    0.1659E-01    0.8446E-02    0.4335E-02    0.2190E-02
  (  1,  4,  1) (  1,  4,  1) (  1,  4,  1) (  1,  4,  1) (  1,  4,  1)
     0.1100E-02    0.5507E-03    0.2755E-03    0.1378E-03
  (  1,  4,  1) (  1,  4,  1) (  1,  4,  1) (  1,  4,  1)


 NO OUTPUT CONTROL FOR STRESS PERIOD    9   TIME STEP   6
 
 SOLVING FOR HEAD 
     9 ITERATIONS FOR TIME STEP   7 IN STRESS PERIOD    9

 MAXIMUM HEAD CHANGE FOR EACH ITERATION:

    HEAD CHANGE   HEAD CHANGE   HEAD CHANGE   HEAD CHANGE   HEAD CHANGE
  LAYER,ROW,COL LAYER,ROW,COL LAYER,ROW,COL LAYER,ROW,COL LAYER,ROW,COL
 ----------------------------------------------------------------------
     0.3394E-01    0.1734E-01    0.8831E-02    0.4585E-02    0.2281E-02
  (  1,  4,  1) (  1,  4,  1) (  1,  4,  1) (  1,  4,  1) (  1,  4,  1)
     0.1183E-02    0.6003E-03    0.3019E-03    0.1513E-03
  (  1,  4,  1) (  1,  4,  1) (  1,  4,  1) (  1,  4,  1)


 NO OUTPUT CONTROL FOR STRESS PERIOD    9   TIME STEP   7
 
 SOLVING FOR HEAD 
     9 ITERATIONS FOR TIME STEP   8 IN STRESS PERIOD    9

 MAXIMUM HEAD CHANGE FOR EACH ITERATION:

    HEAD CHANGE   HEAD CHANGE   HEAD CHANGE   HEAD CHANGE   HEAD CHANGE
  LAYER,ROW,COL LAYER,ROW,COL LAYER,ROW,COL LAYER,ROW,COL LAYER,ROW,COL
 ----------------------------------------------------------------------
     0.3681E-01    0.1885E-01    0.9567E-02    0.4912E-02    0.2381E-02
  (  1,  4,  1) (  1,  4,  1) (  1,  4,  1) (  1,  4,  1) (  1,  4,  1)
     0.1276E-02    0.5549E-03    0.3108E-03    0.1621E-03
  (  1,  4,  1) (  1,  4,  1) (  1,  4,  1) (  1,  4,  1)


 NO OUTPUT CONTROL FOR STRESS PERIOD    9   TIME STEP   8
 
 SOLVING FOR HEAD 
     9 ITERATIONS FOR TIME STEP   9 IN STRESS PERIOD    9

 MAXIMUM HEAD CHANGE FOR EACH ITERATION:

    HEAD CHANGE   HEAD CHANGE   HEAD CHANGE   HEAD CHANGE   HEAD CHANGE
  LAYER,ROW,COL LAYER,ROW,COL LAYER,ROW,COL LAYER,ROW,COL LAYER,ROW,COL
 ----------------------------------------------------------------------
     0.3517E-01    0.1763E-01    0.8855E-02    0.4462E-02    0.2211E-02
  (  1,  4,  1) (  1,  4,  1) (  1,  4,  1) (  1,  4,  1) (  1,  4,  1)
     0.1156E-02    0.5607E-03    0.2769E-03    0.1103E-03
  (  1,  4,  1) (  1,  4,  1) (  1,  4,  1) (  1,  4,  1)


 NO OUTPUT CONTROL FOR STRESS PERIOD    9   TIME STEP   9
 
 SOLVING FOR HEAD 
     9 ITERATIONS FOR TIME STEP  10 IN STRESS PERIOD    9

 MAXIMUM HEAD CHANGE FOR EACH ITERATION:

    HEAD CHANGE   HEAD CHANGE   HEAD CHANGE   HEAD CHANGE   HEAD CHANGE
  LAYER,ROW,COL LAYER,ROW,COL LAYER,ROW,COL LAYER,ROW,COL LAYER,ROW,COL
 ----------------------------------------------------------------------
     0.3815E-01    0.1916E-01    0.9567E-02    0.4811E-02    0.2411E-02
  (  1,  4,  1) (  1,  4,  1) (  1,  4,  1) (  1,  4,  1) (  1,  4,  1)
     0.1206E-02    0.6034E-03    0.3017E-03    0.1811E-03
  (  1,  4,  1) (  1,  4,  1) (  1,  4,  1) (  1,  4,  1)


 OUTPUT CONTROL FOR STRESS PERIOD    9   TIME STEP  10
    PRINT BUDGET
    SAVE BUDGET

            WELLS   PERIOD    9   STEP  10
 WELL      1   LAYER   1   ROW     6   COL     4   RATE    -1.00000    
 WELL      2   LAYER   1   ROW     6   COL     5   RATE    -1.00000    
 WELL      3   LAYER   1   ROW     7   COL     4   RATE    -1.00000    
 WELL      4   LAYER   1   ROW     7   COL     5   RATE    -1.00000    
 WELL      5   LAYER   1   ROW     8   COL     4   RATE    -1.00000    
 WELL      6   LAYER   1   ROW     8   COL     5   RATE    -1.00000    
 WELL      7   LAYER   1   ROW     9   COL     4   RATE    -1.00000    
 WELL      8   LAYER   1   ROW     9   COL     5   RATE    -1.00000    
 WELL      9   LAYER   1   ROW    10   COL     4   RATE    -1.00000    
 WELL     10   LAYER   1   ROW    10   COL     5   RATE    -1.00000    

  HEAD DEP BOUNDS   PERIOD    9   STEP  10
 BOUNDARY      1   LAYER   1   ROW    13   COL     1   RATE   -0.263532    
 BOUNDARY      2   LAYER   1   ROW    14   COL     9   RATE    0.208965    
 UBDSV3 SAVING "           GW ET" ON UNIT  61 AT TIME STEP 10, STRESS PERIOD   9
 UBDSV3 SAVING "    UZF INFILTR." ON UNIT  61 AT TIME STEP 10, STRESS PERIOD   9
 UBDSV3 SAVING "    UZF RECHARGE" ON UNIT  61 AT TIME STEP 10, STRESS PERIOD   9
 UBDSV3 SAVING " SURFACE LEAKAGE" ON UNIT  61 AT TIME STEP 10, STRESS PERIOD   9


UNSATURATED ZONE PACKAGE VOLUMETRIC BUDGET FOR  TIME STEP   10 STRESS PERIOD    9
  ------------------------------------------------------------------------------



     CUMULATIVE VOLUMES      L**3       RATES FOR THIS TIME STEP      L**3/T
     ------------------                 ------------------------

           IN:                                      IN:
           ---                                      ---
        INFILTRATION =  1414398571.5256          INFILTRATION =          25.4250

          OUT:                                     OUT:
          ----                                     ----
              UZF ET =  1704779144.0339                UZF ET =          65.9281
        UZF RECHARGE =   291766557.8993          UZF RECHARGE =          10.5597

            IN - OUT =  -582147130.4077              IN - OUT =         -51.0628

          STORAGE:                                 STORAGE:
          --------                                 --------
      STORAGE CHANGE =  -581941713.7669        STORAGE CHANGE =         -51.0607

 PERCENT DISCREPANCY IS DIFFERENCE BETWEEN IN-OUT MINUS CHANGE IN STORAGE
 DIVIDED BY THE AVERAGE OF IN AND OUT TIMES 100

 PERCENT DISCREPANCY =           0.00     PERCENT DISCREPANCY =           0.00









 STREAM LISTING     PERIOD      9   STEP       10

 LAYER ROW COL. STREAM  RCH.  FLOW INTO     FLOW TO   FLOW OUT OF   OVRLND.     DIRECT     STREAM       STREAM     STREAM     STREAM   STREAMBED  STREAMBED
                SEG.NO.  NO.  STRM. RCH.    AQUIFER    STRM. RCH.    RUNOFF     PRECIP       ET          HEAD       DEPTH      WIDTH   CONDCTNC.   GRADIENT

   1    1    1     1     1    2.5000E+01  1.0565E+00   2.3943E+01  0.000E+00  0.000E+00  0.000E+00  1.09422E+03  1.172E+00  1.296E+01  5.831E-01  6.040E-01
   1    2    2     1     2    2.3943E+01  3.0659E+00   2.0878E+01  0.000E+00  0.000E+00  0.000E+00  1.08920E+03  1.140E+00  1.253E+01  8.771E-01  1.165E+00
   1    3    3     1     3    2.0878E+01  2.9030E+00   1.7975E+01  0.000E+00  0.000E+00  0.000E+00  1.08351E+03  1.091E+00  1.183E+01  7.096E-01  1.364E+00
   1    3    4     1     4    1.7975E+01  2.4658E+00   1.5509E+01  0.000E+00  0.000E+00  0.000E+00  1.07845E+03  1.045E+00  1.098E+01  6.096E-01  1.348E+00
   1    4    5     2     1    5.5088E+00  2.6620E+00   2.8469E+00  0.000E+00  0.000E+00  0.000E+00  1.07235E+03  4.128E-01  1.200E+01  7.800E-01  1.138E+00
   1    5    6     2     2    2.8469E+00  1.9529E+00   8.9395E-01  0.000E+00  0.000E+00  0.000E+00  1.06676E+03  2.549E-01  1.200E+01  6.000E-01  1.085E+00
   1    6    6     2     3    8.9395E-01  8.9395E-01   0.0000E+00  0.000E+00  0.000E+00  0.000E+00  1.06183E+03  3.682E-02  1.200E+01  6.000E-01  1.012E+00
   1    7    6     2     4    0.0000E+00  0.0000E+00   0.0000E+00  0.000E+00  0.000E+00  0.000E+00  1.05708E+03  0.000E+00  1.200E+01  6.000E-01  1.000E+00
   1    8    6     2     5    0.0000E+00  0.0000E+00   0.0000E+00  0.000E+00  0.000E+00  0.000E+00  1.05236E+03  0.000E+00  1.200E+01  6.000E-01  1.000E+00
   1    3    5     3     1    1.0000E+01  2.8252E+00   7.1748E+00  0.000E+00  0.000E+00  0.000E+00  1.07555E+03  1.909E+00  9.636E+00  7.227E-01  1.955E+00
   1    3    6     3     2    7.1748E+00  1.7018E+00   5.4730E+00  0.000E+00  0.000E+00  0.000E+00  1.07264E+03  1.727E+00  8.909E+00  6.682E-01  1.273E+00
   1    3    7     3     3    5.4730E+00  7.9847E-01   4.6746E+00  0.000E+00  0.000E+00  0.000E+00  1.06987E+03  1.555E+00  8.218E+00  5.547E-01  7.197E-01
   1    4    8     3     4    4.6746E+00  1.5331E+00   3.1415E+00  0.000E+00  0.000E+00  0.000E+00  1.06682E+03  1.364E+00  7.455E+00  6.709E-01  1.143E+00
   1    5    8     3     5    3.1415E+00  1.5790E+00   1.5625E+00  0.000E+00  0.000E+00  0.000E+00  1.06362E+03  1.164E+00  6.655E+00  4.991E-01  1.582E+00
   1    6    8     3     6    1.5625E+00  5.5980E-01   1.0027E+00  0.000E+00  0.000E+00  0.000E+00  1.06158E+03  1.036E+00  6.145E+00  1.844E-01  1.518E+00
   1    5   10     4     1    1.0000E+01  9.0525E-01   9.0947E+00  0.000E+00  0.000E+00  0.000E+00  1.07835E+03  6.210E-01  1.000E+01  2.500E-01  1.207E+00
   1    5    9     4     2    9.0947E+00  1.7835E+00   7.3113E+00  0.000E+00  0.000E+00  0.000E+00  1.07148E+03  5.670E-01  1.000E+01  5.000E-01  1.189E+00
   1    6    8     4     3    7.3113E+00  1.2257E+00   6.0855E+00  0.000E+00  0.000E+00  0.000E+00  1.06368E+03  5.021E-01  1.000E+01  3.500E-01  1.167E+00
   1    6    8     5     1    7.0882E+00  9.1952E-01   6.1687E+00  0.000E+00  0.000E+00  0.000E+00  1.05858E+03  5.816E-01  1.182E+01  4.728E-01  6.483E-01
   1    7    7     5     2    6.1687E+00  1.8191E+00   4.3496E+00  0.000E+00  0.000E+00  0.000E+00  1.05404E+03  5.363E-01  1.029E+01  5.144E-01  1.179E+00
   1    8    7     5     3    4.3496E+00  1.0362E+00   3.3133E+00  0.000E+00  0.000E+00  0.000E+00  1.04973E+03  4.801E-01  8.508E+00  2.978E-01  1.160E+00
   1    8    6     5     4    3.3133E+00  6.3156E-01   2.6818E+00  0.000E+00  0.000E+00  0.000E+00  1.04669E+03  4.405E-01  7.343E+00  1.836E-01  1.147E+00
   1    9    6     6     1    2.6818E+00  1.9465E+00   7.3532E-01  0.000E+00  0.000E+00  0.000E+00  1.04297E+03  2.441E-01  1.200E+01  6.000E-01  1.081E+00
   1   10    7     6     2    7.3532E-01  7.3532E-01   0.0000E+00  0.000E+00  0.000E+00  0.000E+00  1.03821E+03  3.312E-02  1.200E+01  6.000E-01  1.011E+00
   1   11    7     6     3    0.0000E+00  0.0000E+00   0.0000E+00  0.000E+00  0.000E+00  0.000E+00  1.03364E+03  0.000E+00  1.200E+01  6.000E-01  1.000E+00
   1   12    7     6     4    0.0000E+00  0.0000E+00   0.0000E+00  0.000E+00  0.000E+00  0.000E+00  1.02909E+03  0.000E+00  1.200E+01  6.000E-01  2.760E-01
   1   13    7     6     5    0.0000E+00 -8.0029E-01   8.0029E-01  0.000E+00  0.000E+00  0.000E+00  1.02591E+03  0.000E+00  1.200E+01  2.400E-01 -1.112E+00
   1   14    9     7     1    1.5000E+02  2.0445E+00   1.4796E+02  0.000E+00  0.000E+00  0.000E+00  1.03987E+03  2.286E+00  5.529E+01  5.592E+00  1.219E-01
   1   13    8     7     2    1.4796E+02  3.0034E+00   1.4495E+02  0.000E+00  0.000E+00  0.000E+00  1.03477E+03  2.272E+00  5.523E+01  6.144E+00  1.629E-01
   1   13    7     7     3    1.4495E+02  2.4186E+00   1.4253E+02  0.000E+00  0.000E+00  0.000E+00  1.02968E+03  2.258E+00  5.516E+01  5.578E+00  1.445E-01
   1   13    6     8     1    1.4333E+02  7.2360E-01   1.4261E+02  0.000E+00  0.000E+00  0.000E+00  1.02464E+03  2.767E+00  4.012E+01  4.088E+00  5.900E-02
   1   13    5     8     2    1.4261E+02 -2.0923E+00   1.4470E+02  0.000E+00  0.000E+00  0.000E+00  1.01840E+03  2.772E+00  4.019E+01  4.095E+00 -1.703E-01
   1   13    4     8     3    1.4470E+02 -3.8029E+00   1.4851E+02  0.000E+00  0.000E+00  0.000E+00  1.01217E+03  2.793E+00  4.049E+01  4.127E+00 -3.072E-01
   1   13    3     8     4    1.4851E+02 -4.0782E+00   1.5258E+02  0.000E+00  0.000E+00  0.000E+00  1.00595E+03  2.821E+00  4.090E+01  4.168E+00 -3.262E-01
   1   13    2     8     5    1.5258E+02 -2.0806E+00   1.5466E+02  0.000E+00  0.000E+00  0.000E+00  9.99717E+02  2.842E+00  4.121E+01  4.200E+00 -1.651E-01
   1   13    1     8     6    1.5466E+02 -5.2791E-01   1.5519E+02  0.000E+00  0.000E+00  0.000E+00  9.94726E+02  2.851E+00  4.134E+01  2.528E+00 -6.961E-02



1
  VOLUMETRIC BUDGET FOR ENTIRE MODEL AT END OF TIME STEP 10 IN STRESS PERIOD   9
  ------------------------------------------------------------------------------

     CUMULATIVE VOLUMES      L**3       RATES FOR THIS TIME STEP      L**3/T
     ------------------                 ------------------------

           IN:                                      IN:
           ---                                      ---
             STORAGE =    73154560.0000               STORAGE =           0.6492
       CONSTANT HEAD =           0.0000         CONSTANT HEAD =           0.0000
               WELLS =           0.0000                 WELLS =           0.0000
     HEAD DEP BOUNDS =     4667054.0000       HEAD DEP BOUNDS =           0.2090
        UZF RECHARGE =   291766528.0000          UZF RECHARGE =          10.5597
               GW ET =           0.0000                 GW ET =           0.0000
     SURFACE LEAKAGE =           0.0000       SURFACE LEAKAGE =           0.0000
      STREAM LEAKAGE =   963872384.0000        STREAM LEAKAGE =          43.1901

            TOTAL IN =  1333460480.0000              TOTAL IN =          54.6079

          OUT:                                     OUT:
          ----                                     ----
             STORAGE =   342184608.0000               STORAGE =          12.8083
       CONSTANT HEAD =           0.0000         CONSTANT HEAD =           0.0000
               WELLS =   302262272.0000                 WELLS =          10.0000
     HEAD DEP BOUNDS =     5888843.5000       HEAD DEP BOUNDS =           0.2635
        UZF RECHARGE =           0.0000          UZF RECHARGE =           0.0000
               GW ET =   381415840.0000                 GW ET =          18.1382
     SURFACE LEAKAGE =           0.0000       SURFACE LEAKAGE =           0.0000
      STREAM LEAKAGE =   301045504.0000        STREAM LEAKAGE =          13.3822

           TOTAL OUT =  1332797056.0000             TOTAL OUT =          54.5922

            IN - OUT =      663424.0000              IN - OUT =       1.5724E-02

 PERCENT DISCREPANCY =           0.05     PERCENT DISCREPANCY =           0.03






          TIME SUMMARY AT END OF TIME STEP  10 IN STRESS PERIOD    9
                    SECONDS     MINUTES      HOURS       DAYS        YEARS
                    -----------------------------------------------------------
   TIME STEP LENGTH 1.95033E+05  3250.6      54.176      2.2573     6.18023E-03
 STRESS PERIOD TIME 1.31823E+06  21971.      366.18      15.257     4.17723E-02
         TOTAL TIME 2.23422E+07 3.72370E+05  6206.2      258.59     0.70798    
1
 
 SOLVING FOR HEAD 
     9 ITERATIONS FOR TIME STEP  11 IN STRESS PERIOD    9

 MAXIMUM HEAD CHANGE FOR EACH ITERATION:

    HEAD CHANGE   HEAD CHANGE   HEAD CHANGE   HEAD CHANGE   HEAD CHANGE
  LAYER,ROW,COL LAYER,ROW,COL LAYER,ROW,COL LAYER,ROW,COL LAYER,ROW,COL
 ----------------------------------------------------------------------
     0.4031E-01    0.2020E-01    0.1008E-01    0.5067E-02    0.2539E-02
  (  1,  4,  1) (  1,  4,  1) (  1,  4,  1) (  1,  4,  1) (  1,  4,  1)
     0.1238E-02    0.6455E-03    0.3280E-03    0.1983E-03
  (  1,  4,  1) (  1,  4,  1) (  1,  4,  1) (  1,  4,  1)


 NO OUTPUT CONTROL FOR STRESS PERIOD    9   TIME STEP  11
 
 SOLVING FOR HEAD 
     9 ITERATIONS FOR TIME STEP  12 IN STRESS PERIOD    9

 MAXIMUM HEAD CHANGE FOR EACH ITERATION:

    HEAD CHANGE   HEAD CHANGE   HEAD CHANGE   HEAD CHANGE   HEAD CHANGE
  LAYER,ROW,COL LAYER,ROW,COL LAYER,ROW,COL LAYER,ROW,COL LAYER,ROW,COL
 ----------------------------------------------------------------------
     0.4194E-01    0.2086E-01    0.1037E-01    0.5135E-02    0.2558E-02
  (  1,  4,  1) (  1,  4,  1) (  1,  4,  1) (  1,  4,  1) (  1,  4,  1)
     0.1241E-02    0.6125E-03    0.3411E-03    0.1411E-03
  (  1,  4,  1) (  1,  4,  1) (  1,  4,  1) (  1,  4,  1)


 NO OUTPUT CONTROL FOR STRESS PERIOD    9   TIME STEP  12
 
 SOLVING FOR HEAD 
     9 ITERATIONS FOR TIME STEP  13 IN STRESS PERIOD    9

 MAXIMUM HEAD CHANGE FOR EACH ITERATION:

    HEAD CHANGE   HEAD CHANGE   HEAD CHANGE   HEAD CHANGE   HEAD CHANGE
  LAYER,ROW,COL LAYER,ROW,COL LAYER,ROW,COL LAYER,ROW,COL LAYER,ROW,COL
 ----------------------------------------------------------------------
     0.4297E-01    0.2125E-01    0.1042E-01    0.5127E-02    0.2548E-02
  (  1,  4,  1) (  1,  4,  1) (  1,  4,  1) (  1,  4,  1) (  1,  4,  1)
     0.1230E-02    0.6463E-03    0.2894E-03    0.1380E-03
  (  1,  4,  1) (  1,  4,  1) (  1,  4,  1) (  1,  4,  1)


 NO OUTPUT CONTROL FOR STRESS PERIOD    9   TIME STEP  13
 
 SOLVING FOR HEAD 
     9 ITERATIONS FOR TIME STEP  14 IN STRESS PERIOD    9

 MAXIMUM HEAD CHANGE FOR EACH ITERATION:

    HEAD CHANGE   HEAD CHANGE   HEAD CHANGE   HEAD CHANGE   HEAD CHANGE
  LAYER,ROW,COL LAYER,ROW,COL LAYER,ROW,COL LAYER,ROW,COL LAYER,ROW,COL
 ----------------------------------------------------------------------
     0.4511E-01    0.2223E-01    0.1096E-01    0.5360E-02    0.2657E-02
  (  1,  4,  1) (  1,  4,  1) (  1,  4,  1) (  1,  4,  1) (  1,  4,  1)
     0.1323E-02    0.6164E-03    0.2992E-03    0.1478E-03
  (  1,  4,  1) (  1,  4,  1) (  1,  4,  1) (  1,  4,  1)


 NO OUTPUT CONTROL FOR STRESS PERIOD    9   TIME STEP  14
 
 SOLVING FOR HEAD 
    10 ITERATIONS FOR TIME STEP  15 IN STRESS PERIOD    9

 MAXIMUM HEAD CHANGE FOR EACH ITERATION:

    HEAD CHANGE   HEAD CHANGE   HEAD CHANGE   HEAD CHANGE   HEAD CHANGE
  LAYER,ROW,COL LAYER,ROW,COL LAYER,ROW,COL LAYER,ROW,COL LAYER,ROW,COL
 ----------------------------------------------------------------------
     0.6516E-01    0.3255E-01    0.1627E-01    0.8180E-02    0.4053E-02
  (  1,  6,  1) (  1,  6,  1) (  1,  6,  1) (  1,  6,  1) (  1,  6,  1)
     0.2065E-02    0.9930E-03    0.4879E-03    0.2909E-03    0.7301E-04
  (  1,  6,  1) (  1,  6,  1) (  1,  6,  1) (  1,  6,  1) (  1, 13,  2)


 OUTPUT CONTROL FOR STRESS PERIOD    9   TIME STEP  15
    PRINT BUDGET
    PRINT HEAD FOR ALL LAYERS
    SAVE HEAD FOR ALL LAYERS
    SAVE BUDGET

            WELLS   PERIOD    9   STEP  15
 WELL      1   LAYER   1   ROW     6   COL     4   RATE    -1.00000    
 WELL      2   LAYER   1   ROW     6   COL     5   RATE    -1.00000    
 WELL      3   LAYER   1   ROW     7   COL     4   RATE    -1.00000    
 WELL      4   LAYER   1   ROW     7   COL     5   RATE    -1.00000    
 WELL      5   LAYER   1   ROW     8   COL     4   RATE    -1.00000    
 WELL      6   LAYER   1   ROW     8   COL     5   RATE    -1.00000    
 WELL      7   LAYER   1   ROW     9   COL     4   RATE    -1.00000    
 WELL      8   LAYER   1   ROW     9   COL     5   RATE    -1.00000    
 WELL      9   LAYER   1   ROW    10   COL     4   RATE    -1.00000    
 WELL     10   LAYER   1   ROW    10   COL     5   RATE    -1.00000    

  HEAD DEP BOUNDS   PERIOD    9   STEP  15
 BOUNDARY      1   LAYER   1   ROW    13   COL     1   RATE   -0.263317    
 BOUNDARY      2   LAYER   1   ROW    14   COL     9   RATE    0.208984    
 UBDSV3 SAVING "           GW ET" ON UNIT  61 AT TIME STEP 15, STRESS PERIOD   9
 UBDSV3 SAVING "    UZF INFILTR." ON UNIT  61 AT TIME STEP 15, STRESS PERIOD   9
 UBDSV3 SAVING "    UZF RECHARGE" ON UNIT  61 AT TIME STEP 15, STRESS PERIOD   9
 UBDSV3 SAVING " SURFACE LEAKAGE" ON UNIT  61 AT TIME STEP 15, STRESS PERIOD   9


UNSATURATED ZONE PACKAGE VOLUMETRIC BUDGET FOR  TIME STEP   15 STRESS PERIOD    9
  ------------------------------------------------------------------------------



     CUMULATIVE VOLUMES      L**3       RATES FOR THIS TIME STEP      L**3/T
     ------------------                 ------------------------

           IN:                                      IN:
           ---                                      ---
        INFILTRATION =  1447699381.3334          INFILTRATION =          25.4250

          OUT:                                     OUT:
          ----                                     ----
              UZF ET =  1783850097.7544                UZF ET =          57.7655
        UZF RECHARGE =   305440272.9696          UZF RECHARGE =          11.1510

            IN - OUT =  -641590989.3906              IN - OUT =         -43.4915

          STORAGE:                                 STORAGE:
          --------                                 --------
      STORAGE CHANGE =  -641390020.2205        STORAGE CHANGE =         -43.4891

 PERCENT DISCREPANCY IS DIFFERENCE BETWEEN IN-OUT MINUS CHANGE IN STORAGE
 DIVIDED BY THE AVERAGE OF IN AND OUT TIMES 100

 PERCENT DISCREPANCY =           0.00     PERCENT DISCREPANCY =           0.00









 STREAM LISTING     PERIOD      9   STEP       15

 LAYER ROW COL. STREAM  RCH.  FLOW INTO     FLOW TO   FLOW OUT OF   OVRLND.     DIRECT     STREAM       STREAM     STREAM     STREAM   STREAMBED  STREAMBED
                SEG.NO.  NO.  STRM. RCH.    AQUIFER    STRM. RCH.    RUNOFF     PRECIP       ET          HEAD       DEPTH      WIDTH   CONDCTNC.   GRADIENT

   1    1    1     1     1    2.5000E+01  1.0592E+00   2.3941E+01  0.000E+00  0.000E+00  0.000E+00  1.09422E+03  1.172E+00  1.296E+01  5.830E-01  6.056E-01
   1    2    2     1     2    2.3941E+01  3.0660E+00   2.0875E+01  0.000E+00  0.000E+00  0.000E+00  1.08920E+03  1.140E+00  1.253E+01  8.771E-01  1.165E+00
   1    3    3     1     3    2.0875E+01  2.9028E+00   1.7972E+01  0.000E+00  0.000E+00  0.000E+00  1.08351E+03  1.091E+00  1.183E+01  7.096E-01  1.364E+00
   1    3    4     1     4    1.7972E+01  2.4655E+00   1.5506E+01  0.000E+00  0.000E+00  0.000E+00  1.07845E+03  1.045E+00  1.098E+01  6.096E-01  1.348E+00
   1    4    5     2     1    5.5065E+00  2.6619E+00   2.8446E+00  0.000E+00  0.000E+00  0.000E+00  1.07235E+03  4.126E-01  1.200E+01  7.800E-01  1.138E+00
   1    5    6     2     2    2.8446E+00  1.9528E+00   8.9178E-01  0.000E+00  0.000E+00  0.000E+00  1.06676E+03  2.547E-01  1.200E+01  6.000E-01  1.085E+00
   1    6    6     2     3    8.9178E-01  8.9178E-01   0.0000E+00  0.000E+00  0.000E+00  0.000E+00  1.06183E+03  3.677E-02  1.200E+01  6.000E-01  1.012E+00
   1    7    6     2     4    0.0000E+00  0.0000E+00   0.0000E+00  0.000E+00  0.000E+00  0.000E+00  1.05708E+03  0.000E+00  1.200E+01  6.000E-01  1.000E+00
   1    8    6     2     5    0.0000E+00  0.0000E+00   0.0000E+00  0.000E+00  0.000E+00  0.000E+00  1.05236E+03  0.000E+00  1.200E+01  6.000E-01  1.000E+00
   1    3    5     3     1    1.0000E+01  2.8252E+00   7.1748E+00  0.000E+00  0.000E+00  0.000E+00  1.07555E+03  1.909E+00  9.636E+00  7.227E-01  1.955E+00
   1    3    6     3     2    7.1748E+00  1.7037E+00   5.4711E+00  0.000E+00  0.000E+00  0.000E+00  1.07264E+03  1.727E+00  8.909E+00  6.682E-01  1.275E+00
   1    3    7     3     3    5.4711E+00  7.8913E-01   4.6820E+00  0.000E+00  0.000E+00  0.000E+00  1.06987E+03  1.555E+00  8.218E+00  5.547E-01  7.113E-01
   1    4    8     3     4    4.6820E+00  1.5472E+00   3.1347E+00  0.000E+00  0.000E+00  0.000E+00  1.06682E+03  1.364E+00  7.455E+00  6.709E-01  1.153E+00
   1    5    8     3     5    3.1347E+00  1.5790E+00   1.5558E+00  0.000E+00  0.000E+00  0.000E+00  1.06362E+03  1.164E+00  6.655E+00  4.991E-01  1.582E+00
   1    6    8     3     6    1.5558E+00  5.5980E-01   9.9596E-01  0.000E+00  0.000E+00  0.000E+00  1.06158E+03  1.036E+00  6.145E+00  1.844E-01  1.518E+00
   1    5   10     4     1    1.0000E+01  9.0525E-01   9.0947E+00  0.000E+00  0.000E+00  0.000E+00  1.07835E+03  6.210E-01  1.000E+01  2.500E-01  1.207E+00
   1    5    9     4     2    9.0947E+00  1.7835E+00   7.3113E+00  0.000E+00  0.000E+00  0.000E+00  1.07148E+03  5.670E-01  1.000E+01  5.000E-01  1.189E+00
   1    6    8     4     3    7.3113E+00  1.2257E+00   6.0855E+00  0.000E+00  0.000E+00  0.000E+00  1.06368E+03  5.021E-01  1.000E+01  3.500E-01  1.167E+00
   1    6    8     5     1    7.0815E+00  9.0752E-01   6.1740E+00  0.000E+00  0.000E+00  0.000E+00  1.05858E+03  5.816E-01  1.182E+01  4.728E-01  6.398E-01
   1    7    7     5     2    6.1740E+00  1.8147E+00   4.3593E+00  0.000E+00  0.000E+00  0.000E+00  1.05404E+03  5.366E-01  1.030E+01  5.148E-01  1.175E+00
   1    8    7     5     3    4.3593E+00  1.0378E+00   3.3215E+00  0.000E+00  0.000E+00  0.000E+00  1.04973E+03  4.805E-01  8.519E+00  2.982E-01  1.160E+00
   1    8    6     5     4    3.3215E+00  6.3260E-01   2.6889E+00  0.000E+00  0.000E+00  0.000E+00  1.04669E+03  4.409E-01  7.354E+00  1.838E-01  1.147E+00
   1    9    6     6     1    2.6889E+00  1.9468E+00   7.4209E-01  0.000E+00  0.000E+00  0.000E+00  1.04297E+03  2.447E-01  1.200E+01  6.000E-01  1.082E+00
   1   10    7     6     2    7.4209E-01  7.4209E-01   0.0000E+00  0.000E+00  0.000E+00  0.000E+00  1.03822E+03  3.330E-02  1.200E+01  6.000E-01  1.011E+00
   1   11    7     6     3    0.0000E+00  0.0000E+00   0.0000E+00  0.000E+00  0.000E+00  0.000E+00  1.03364E+03  0.000E+00  1.200E+01  6.000E-01  1.000E+00
   1   12    7     6     4    0.0000E+00  0.0000E+00   0.0000E+00  0.000E+00  0.000E+00  0.000E+00  1.02909E+03  0.000E+00  1.200E+01  6.000E-01  2.731E-01
   1   13    7     6     5    0.0000E+00 -7.9955E-01   7.9955E-01  0.000E+00  0.000E+00  0.000E+00  1.02591E+03  0.000E+00  1.200E+01  2.400E-01 -1.110E+00
   1   14    9     7     1    1.5000E+02  2.0473E+00   1.4795E+02  0.000E+00  0.000E+00  0.000E+00  1.03987E+03  2.286E+00  5.529E+01  5.592E+00  1.220E-01
   1   13    8     7     2    1.4795E+02  3.0079E+00   1.4494E+02  0.000E+00  0.000E+00  0.000E+00  1.03477E+03  2.272E+00  5.523E+01  6.144E+00  1.632E-01
   1   13    7     7     3    1.4494E+02  2.4352E+00   1.4251E+02  0.000E+00  0.000E+00  0.000E+00  1.02968E+03  2.258E+00  5.516E+01  5.578E+00  1.455E-01
   1   13    6     8     1    1.4331E+02  7.3621E-01   1.4257E+02  0.000E+00  0.000E+00  0.000E+00  1.02464E+03  2.766E+00  4.011E+01  4.088E+00  6.004E-02
   1   13    5     8     2    1.4257E+02 -2.0599E+00   1.4463E+02  0.000E+00  0.000E+00  0.000E+00  1.01840E+03  2.771E+00  4.018E+01  4.095E+00 -1.677E-01
   1   13    4     8     3    1.4463E+02 -3.7847E+00   1.4842E+02  0.000E+00  0.000E+00  0.000E+00  1.01217E+03  2.792E+00  4.049E+01  4.126E+00 -3.058E-01
   1   13    3     8     4    1.4842E+02 -4.0345E+00   1.5245E+02  0.000E+00  0.000E+00  0.000E+00  1.00594E+03  2.820E+00  4.089E+01  4.167E+00 -3.228E-01
   1   13    2     8     5    1.5245E+02 -2.0791E+00   1.5453E+02  0.000E+00  0.000E+00  0.000E+00  9.99716E+02  2.841E+00  4.120E+01  4.198E+00 -1.651E-01
   1   13    1     8     6    1.5453E+02 -5.1594E-01   1.5505E+02  0.000E+00  0.000E+00  0.000E+00  9.94725E+02  2.850E+00  4.133E+01  2.527E+00 -6.806E-02



1
              HEAD IN LAYER   1 AT END OF TIME STEP  15 IN STRESS PERIOD    9
  ---------------------------------------------------------------------------

           1       2       3       4       5       6       7       8       9      10
 ...................................................................................
   1  1092.40 1088.65 6999.00 6999.00 6999.00 6999.00 6999.00 6999.00 6999.00 6999.00
   2  1089.07 1085.70 1079.25 6999.00 6999.00 1074.01 1072.95 1070.79 6999.00 6999.00
   3  6999.00 1077.38 1074.47 1070.34 1071.31 1070.09 1068.45 1068.03 6999.00 6999.00
   4  1068.66 1068.50 1066.88 1063.45 1062.31 1061.03 1061.71 1064.51 1063.87 6999.00
   5  1063.85 1061.43 1059.01 1057.22 1056.95 1057.49 1057.36 1059.48 1062.95 1065.36
   6  1059.19 1055.53 1052.72 1051.24 1051.52 1052.99 1054.26 1056.66 1059.46 1063.70
   7  1055.39 1049.89 1046.95 1045.75 1046.33 1048.09 1050.51 1052.89 1054.24 6999.00
   8  6999.00 1042.56 1040.91 1040.24 1041.08 1043.03 1044.84 1047.32 1049.21 6999.00
   9  6999.00 1035.59 1034.90 1034.83 1035.98 1038.12 1039.02 1040.87 1043.79 6999.00
  10  6999.00 1028.53 1028.84 1029.76 1031.19 1033.07 1034.40 1036.36 1040.07 1044.39
  11  6999.00 1019.71 1021.38 1024.90 1026.93 1029.01 1030.55 1032.88 1036.33 6999.00
  12  1001.20 1008.86 1014.08 1018.94 1022.59 1025.84 1028.27 1031.07 1034.89 6999.00
  13   994.93 1000.21 1006.91 1013.08 1018.90 1024.46 1029.24 1034.28 1036.40 6999.00
  14  6999.00 1005.83 1011.49 1016.21 1021.24 1025.94 1030.22 1035.27 1039.50 6999.00
  15  6999.00 6999.00 1018.84 1021.83 1025.57 1028.54 6999.00 6999.00 6999.00 6999.00

 HEAD WILL BE SAVED ON UNIT   58 AT END OF TIME STEP  15, STRESS PERIOD    9
1
  VOLUMETRIC BUDGET FOR ENTIRE MODEL AT END OF TIME STEP 15 IN STRESS PERIOD   9
  ------------------------------------------------------------------------------

     CUMULATIVE VOLUMES      L**3       RATES FOR THIS TIME STEP      L**3/T
     ------------------                 ------------------------

           IN:                                      IN:
           ---                                      ---
             STORAGE =    74139152.0000               STORAGE =           0.8922
       CONSTANT HEAD =           0.0000         CONSTANT HEAD =           0.0000
               WELLS =           0.0000                 WELLS =           0.0000
     HEAD DEP BOUNDS =     4940765.5000       HEAD DEP BOUNDS =           0.2090
        UZF RECHARGE =   305440224.0000          UZF RECHARGE =          11.1510
               GW ET =           0.0000                 GW ET =           0.0000
     SURFACE LEAKAGE =           0.0000       SURFACE LEAKAGE =           0.0000
      STREAM LEAKAGE =  1020473088.0000        STREAM LEAKAGE =          43.2266

            TOTAL IN =  1404993280.0000              TOTAL IN =          55.4788

          OUT:                                     OUT:
          ----                                     ----
             STORAGE =   358961632.0000               STORAGE =          13.6547
       CONSTANT HEAD =           0.0000         CONSTANT HEAD =           0.0000
               WELLS =   315359968.0000                 WELLS =          10.0000
     HEAD DEP BOUNDS =     6233830.0000       HEAD DEP BOUNDS =           0.2633
        UZF RECHARGE =           0.0000          UZF RECHARGE =           0.0000
               GW ET =   405272672.0000                 GW ET =          18.2506
     SURFACE LEAKAGE =           0.0000       SURFACE LEAKAGE =           0.0000
      STREAM LEAKAGE =   318469824.0000        STREAM LEAKAGE =          13.2738

           TOTAL OUT =  1404297984.0000             TOTAL OUT =          55.4424

            IN - OUT =      695296.0000              IN - OUT =       3.6366E-02

 PERCENT DISCREPANCY =           0.05     PERCENT DISCREPANCY =           0.07






          TIME SUMMARY AT END OF TIME STEP  15 IN STRESS PERIOD    9
                    SECONDS     MINUTES      HOURS       DAYS        YEARS
                    -----------------------------------------------------------
   TIME STEP LENGTH 3.14103E+05  5235.0      87.251      3.6354     9.95332E-03
 STRESS PERIOD TIME 2.62800E+06  43800.      730.00      30.417     8.32763E-02
         TOTAL TIME 2.36520E+07 3.94200E+05  6570.0      273.75     0.74949    
1
1
                            STRESS PERIOD NO.   10, LENGTH =   2628000.    
                            -----------------------------------------------

                              NUMBER OF TIME STEPS =    15

                               MULTIPLIER FOR DELT =     1.100

                            INITIAL TIME STEP SIZE =   82713.07    

      0 WELLS

 REUSING NON-PARAMETER GHB CELLS FROM LAST STRESS PERIOD

      2 GHB CELLS

 REUSING STREAM SEGMENT DATA FROM LAST STRESS PERIOD



            AREAL INFILTRATION RATE
 READING ON UNIT   19 WITH FORMAT: (10F4.0)            

            1           2           3           4           5           6           7           8           9          10
 ........................................................................................................................
   1   2.0000E-09  4.0000E-09   0.000       0.000       0.000       0.000       0.000       0.000       0.000       0.000    
   2   4.0000E-09  2.0000E-09  4.0000E-09   0.000       0.000      1.6000E-08  1.6000E-08  1.0000E-08   0.000       0.000    
   3    0.000      1.0000E-08  2.0000E-09  2.0000E-09  1.6000E-08  1.6000E-08  1.0000E-08  1.0000E-08   0.000       0.000    
   4   1.6000E-08  1.0000E-08  2.0000E-09  2.0000E-09  2.0000E-09  2.0000E-09  2.0000E-09  2.0000E-09  4.0000E-09   0.000    
   5   1.6000E-08  1.0000E-08  2.0000E-09  2.0000E-09  2.0000E-09  2.0000E-09  2.0000E-09  2.0000E-09  2.0000E-09  2.0000E-09
   6   1.6000E-08  1.0000E-08  1.0000E-08  4.0000E-09  4.0000E-09  2.0000E-09  2.0000E-09  2.0000E-09  2.0000E-09  1.0000E-08
   7   1.6000E-08  1.0000E-08  1.0000E-08  4.0000E-09  4.0000E-09  2.0000E-09  2.0000E-09  4.0000E-09  4.0000E-09   0.000    
   8    0.000      1.0000E-08  1.0000E-08  4.0000E-09  4.0000E-09  2.0000E-09  2.0000E-09  4.0000E-09  1.0000E-08   0.000    
   9    0.000      1.0000E-08  1.0000E-08  4.0000E-09  4.0000E-09  2.0000E-09  2.0000E-09  4.0000E-09  1.0000E-08   0.000    
  10    0.000      1.0000E-08  1.0000E-08  4.0000E-09  4.0000E-09  2.0000E-09  2.0000E-09  4.0000E-09  1.0000E-08  1.6000E-08
  11    0.000      2.0000E-09  2.0000E-09  2.0000E-09  2.0000E-09  2.0000E-09  2.0000E-09  4.0000E-09  1.0000E-08   0.000    
  12   2.0000E-09  2.0000E-09  2.0000E-09  2.0000E-09  2.0000E-09  2.0000E-09  2.0000E-09  2.0000E-09  4.0000E-09   0.000    
  13   2.0000E-09  2.0000E-09  4.0000E-09  4.0000E-09  4.0000E-09  4.0000E-09  4.0000E-09  2.0000E-09  2.0000E-09   0.000    
  14    0.000      4.0000E-09  1.0000E-08  1.0000E-08  1.0000E-08  1.0000E-08  1.0000E-08  4.0000E-09  2.0000E-09   0.000    
  15    0.000       0.000      1.6000E-08  1.6000E-08  1.6000E-08  1.6000E-08   0.000       0.000       0.000       0.000    

USING ET RATE FROM PREVIOUS STRESS PERIOD. CURRENT PERIOD IS:      10

 USING ET EXTINCTION DEPTH FROM PREVIOUS STRESS PERIOD. CURRENT PERIOD IS:      10

 USING EXTINCTION WATER CONTENT FROM PREVIOUS STRESS PERIOD. CURRENT PERIOD IS:      10
 
 SOLVING FOR HEAD 

     8 ITERATIONS FOR TIME STEP   1 IN STRESS PERIOD   10

 MAXIMUM HEAD CHANGE FOR EACH ITERATION:

    HEAD CHANGE   HEAD CHANGE   HEAD CHANGE   HEAD CHANGE   HEAD CHANGE
  LAYER,ROW,COL LAYER,ROW,COL LAYER,ROW,COL LAYER,ROW,COL LAYER,ROW,COL
 ----------------------------------------------------------------------
     0.1823E-01    0.9160E-02    0.4614E-02    0.2314E-02    0.1184E-02
  (  1,  5,  1) (  1,  5,  1) (  1,  5,  1) (  1,  5,  1) (  1,  5,  1)
     0.5973E-03    0.2741E-03    0.1579E-03
  (  1,  5,  1) (  1,  5,  1) (  1,  5,  1)


 NO OUTPUT CONTROL FOR STRESS PERIOD   10   TIME STEP   1
 
 SOLVING FOR HEAD 
     8 ITERATIONS FOR TIME STEP   2 IN STRESS PERIOD   10

 MAXIMUM HEAD CHANGE FOR EACH ITERATION:

    HEAD CHANGE   HEAD CHANGE   HEAD CHANGE   HEAD CHANGE   HEAD CHANGE
  LAYER,ROW,COL LAYER,ROW,COL LAYER,ROW,COL LAYER,ROW,COL LAYER,ROW,COL
 ----------------------------------------------------------------------
     0.1994E-01    0.9993E-02    0.5058E-02    0.2541E-02    0.1245E-02
  (  1,  5,  1) (  1,  5,  1) (  1,  5,  1) (  1,  5,  1) (  1,  5,  1)
     0.6453E-03    0.3556E-03    0.1278E-03
  (  1,  5,  1) (  1,  5,  1) (  1,  5,  1)


 NO OUTPUT CONTROL FOR STRESS PERIOD   10   TIME STEP   2
 
 SOLVING FOR HEAD 
     8 ITERATIONS FOR TIME STEP   3 IN STRESS PERIOD   10

 MAXIMUM HEAD CHANGE FOR EACH ITERATION:

    HEAD CHANGE   HEAD CHANGE   HEAD CHANGE   HEAD CHANGE   HEAD CHANGE
  LAYER,ROW,COL LAYER,ROW,COL LAYER,ROW,COL LAYER,ROW,COL LAYER,ROW,COL
 ----------------------------------------------------------------------
     0.2131E-01    0.1062E-01    0.5300E-02    0.2679E-02    0.1345E-02
  (  1,  5,  1) (  1,  5,  1) (  1,  5,  1) (  1,  5,  1) (  1,  5,  1)
     0.6428E-03    0.3155E-03    0.1876E-03
  (  1,  5,  1) (  1,  5,  1) (  1,  5,  1)


 NO OUTPUT CONTROL FOR STRESS PERIOD   10   TIME STEP   3
 
 SOLVING FOR HEAD 
     9 ITERATIONS FOR TIME STEP   4 IN STRESS PERIOD   10

 MAXIMUM HEAD CHANGE FOR EACH ITERATION:

    HEAD CHANGE   HEAD CHANGE   HEAD CHANGE   HEAD CHANGE   HEAD CHANGE
  LAYER,ROW,COL LAYER,ROW,COL LAYER,ROW,COL LAYER,ROW,COL LAYER,ROW,COL
 ----------------------------------------------------------------------
     0.2257E-01    0.1122E-01    0.5600E-02    0.2764E-02    0.1375E-02
  (  1,  8,  4) (  1,  5,  1) (  1,  5,  1) (  1,  5,  1) (  1,  5,  1)
     0.6860E-03    0.3426E-03    0.2053E-03    0.1095E-03
  (  1,  5,  1) (  1,  5,  1) (  1,  5,  1) (  1,  5,  1)


 NO OUTPUT CONTROL FOR STRESS PERIOD   10   TIME STEP   4
 
 SOLVING FOR HEAD 
     9 ITERATIONS FOR TIME STEP   5 IN STRESS PERIOD   10

 MAXIMUM HEAD CHANGE FOR EACH ITERATION:

    HEAD CHANGE   HEAD CHANGE   HEAD CHANGE   HEAD CHANGE   HEAD CHANGE
  LAYER,ROW,COL LAYER,ROW,COL LAYER,ROW,COL LAYER,ROW,COL LAYER,ROW,COL
 ----------------------------------------------------------------------
     0.2461E-01    0.1221E-01    0.6058E-02    0.3019E-02    0.1507E-02
  (  1,  8,  4) (  1,  5,  1) (  1,  5,  1) (  1,  5,  1) (  1,  5,  1)
     0.7531E-03    0.3767E-03    0.2256E-03    0.1205E-03
  (  1,  5,  1) (  1,  5,  1) (  1,  5,  1) (  1,  5,  1)


 OUTPUT CONTROL FOR STRESS PERIOD   10   TIME STEP   5
    PRINT BUDGET
    SAVE BUDGET

  HEAD DEP BOUNDS   PERIOD   10   STEP   5
 BOUNDARY      1   LAYER   1   ROW    13   COL     1   RATE   -0.263249    
 BOUNDARY      2   LAYER   1   ROW    14   COL     9   RATE    0.208983    
 UBDSV3 SAVING "           GW ET" ON UNIT  61 AT TIME STEP  5, STRESS PERIOD  10
 UBDSV3 SAVING "    UZF INFILTR." ON UNIT  61 AT TIME STEP  5, STRESS PERIOD  10
 UBDSV3 SAVING "    UZF RECHARGE" ON UNIT  61 AT TIME STEP  5, STRESS PERIOD  10
 UBDSV3 SAVING " SURFACE LEAKAGE" ON UNIT  61 AT TIME STEP  5, STRESS PERIOD  10


UNSATURATED ZONE PACKAGE VOLUMETRIC BUDGET FOR  TIME STEP    5 STRESS PERIOD   10
  ------------------------------------------------------------------------------



     CUMULATIVE VOLUMES      L**3       RATES FOR THIS TIME STEP      L**3/T
     ------------------                 ------------------------

           IN:                                      IN:
           ---                                      ---
        INFILTRATION =  1456258649.5458          INFILTRATION =          16.9500

          OUT:                                     OUT:
          ----                                     ----
              UZF ET =  1812866887.0089                UZF ET =          57.2844
        UZF RECHARGE =   311813965.9131          UZF RECHARGE =          12.3935

            IN - OUT =  -668422203.3762              IN - OUT =         -52.7279

          STORAGE:                                 STORAGE:
          --------                                 --------
      STORAGE CHANGE =  -668221441.2078        STORAGE CHANGE =         -52.7279

 PERCENT DISCREPANCY IS DIFFERENCE BETWEEN IN-OUT MINUS CHANGE IN STORAGE
 DIVIDED BY THE AVERAGE OF IN AND OUT TIMES 100

 PERCENT DISCREPANCY =           0.00     PERCENT DISCREPANCY =           0.00









 STREAM LISTING     PERIOD     10   STEP        5

 LAYER ROW COL. STREAM  RCH.  FLOW INTO     FLOW TO   FLOW OUT OF   OVRLND.     DIRECT     STREAM       STREAM     STREAM     STREAM   STREAMBED  STREAMBED
                SEG.NO.  NO.  STRM. RCH.    AQUIFER    STRM. RCH.    RUNOFF     PRECIP       ET          HEAD       DEPTH      WIDTH   CONDCTNC.   GRADIENT

   1    1    1     1     1    2.5000E+01  1.0602E+00   2.3940E+01  0.000E+00  0.000E+00  0.000E+00  1.09422E+03  1.172E+00  1.296E+01  5.830E-01  6.061E-01
   1    2    2     1     2    2.3940E+01  3.0661E+00   2.0874E+01  0.000E+00  0.000E+00  0.000E+00  1.08920E+03  1.140E+00  1.253E+01  8.771E-01  1.165E+00
   1    3    3     1     3    2.0874E+01  2.9027E+00   1.7971E+01  0.000E+00  0.000E+00  0.000E+00  1.08351E+03  1.091E+00  1.183E+01  7.096E-01  1.364E+00
   1    3    4     1     4    1.7971E+01  2.4655E+00   1.5506E+01  0.000E+00  0.000E+00  0.000E+00  1.07845E+03  1.045E+00  1.098E+01  6.095E-01  1.348E+00
   1    4    5     2     1    5.5055E+00  2.6618E+00   2.8437E+00  0.000E+00  0.000E+00  0.000E+00  1.07235E+03  4.126E-01  1.200E+01  7.800E-01  1.138E+00
   1    5    6     2     2    2.8437E+00  1.9528E+00   8.9095E-01  0.000E+00  0.000E+00  0.000E+00  1.06676E+03  2.546E-01  1.200E+01  6.000E-01  1.085E+00
   1    6    6     2     3    8.9095E-01  8.9095E-01   0.0000E+00  0.000E+00  0.000E+00  0.000E+00  1.06183E+03  3.675E-02  1.200E+01  6.000E-01  1.012E+00
   1    7    6     2     4    0.0000E+00  0.0000E+00   0.0000E+00  0.000E+00  0.000E+00  0.000E+00  1.05708E+03  0.000E+00  1.200E+01  6.000E-01  1.000E+00
   1    8    6     2     5    0.0000E+00  0.0000E+00   0.0000E+00  0.000E+00  0.000E+00  0.000E+00  1.05236E+03  0.000E+00  1.200E+01  6.000E-01  1.000E+00
   1    3    5     3     1    1.0000E+01  2.8252E+00   7.1748E+00  0.000E+00  0.000E+00  0.000E+00  1.07555E+03  1.909E+00  9.636E+00  7.227E-01  1.955E+00
   1    3    6     3     2    7.1748E+00  1.7360E+00   5.4388E+00  0.000E+00  0.000E+00  0.000E+00  1.07264E+03  1.727E+00  8.909E+00  6.682E-01  1.299E+00
   1    3    7     3     3    5.4388E+00  8.0242E-01   4.6364E+00  0.000E+00  0.000E+00  0.000E+00  1.06987E+03  1.555E+00  8.218E+00  5.547E-01  7.233E-01
   1    4    8     3     4    4.6364E+00  1.5519E+00   3.0845E+00  0.000E+00  0.000E+00  0.000E+00  1.06682E+03  1.364E+00  7.455E+00  6.709E-01  1.157E+00
   1    5    8     3     5    3.0845E+00  1.5790E+00   1.5056E+00  0.000E+00  0.000E+00  0.000E+00  1.06362E+03  1.164E+00  6.655E+00  4.991E-01  1.582E+00
   1    6    8     3     6    1.5056E+00  5.5980E-01   9.4577E-01  0.000E+00  0.000E+00  0.000E+00  1.06158E+03  1.036E+00  6.145E+00  1.844E-01  1.518E+00
   1    5   10     4     1    1.0000E+01  9.0525E-01   9.0947E+00  0.000E+00  0.000E+00  0.000E+00  1.07835E+03  6.210E-01  1.000E+01  2.500E-01  1.207E+00
   1    5    9     4     2    9.0947E+00  1.7835E+00   7.3113E+00  0.000E+00  0.000E+00  0.000E+00  1.07148E+03  5.670E-01  1.000E+01  5.000E-01  1.189E+00
   1    6    8     4     3    7.3113E+00  1.2257E+00   6.0855E+00  0.000E+00  0.000E+00  0.000E+00  1.06368E+03  5.021E-01  1.000E+01  3.500E-01  1.167E+00
   1    6    8     5     1    7.0313E+00  8.9856E-01   6.1328E+00  0.000E+00  0.000E+00  0.000E+00  1.05858E+03  5.802E-01  1.177E+01  4.708E-01  6.362E-01
   1    7    7     5     2    6.1328E+00  1.7959E+00   4.3369E+00  0.000E+00  0.000E+00  0.000E+00  1.05404E+03  5.355E-01  1.026E+01  5.130E-01  1.167E+00
   1    8    7     5     3    4.3369E+00  1.0342E+00   3.3027E+00  0.000E+00  0.000E+00  0.000E+00  1.04973E+03  4.796E-01  8.492E+00  2.972E-01  1.160E+00
   1    8    6     5     4    3.3027E+00  6.3021E-01   2.6725E+00  0.000E+00  0.000E+00  0.000E+00  1.04669E+03  4.400E-01  7.328E+00  1.832E-01  1.147E+00
   1    9    6     6     1    2.6725E+00  1.9460E+00   7.2649E-01  0.000E+00  0.000E+00  0.000E+00  1.04297E+03  2.433E-01  1.200E+01  6.000E-01  1.081E+00
   1   10    7     6     2    7.2649E-01  7.2649E-01   0.0000E+00  0.000E+00  0.000E+00  0.000E+00  1.03821E+03  3.288E-02  1.200E+01  6.000E-01  1.011E+00
   1   11    7     6     3    0.0000E+00  0.0000E+00   0.0000E+00  0.000E+00  0.000E+00  0.000E+00  1.03364E+03  0.000E+00  1.200E+01  6.000E-01  1.000E+00
   1   12    7     6     4    0.0000E+00  0.0000E+00   0.0000E+00  0.000E+00  0.000E+00  0.000E+00  1.02909E+03  0.000E+00  1.200E+01  6.000E-01  2.719E-01
   1   13    7     6     5    0.0000E+00 -7.9935E-01   7.9935E-01  0.000E+00  0.000E+00  0.000E+00  1.02591E+03  0.000E+00  1.200E+01  2.400E-01 -1.110E+00
   1   14    9     7     1    1.5000E+02  2.0471E+00   1.4795E+02  0.000E+00  0.000E+00  0.000E+00  1.03987E+03  2.286E+00  5.529E+01  5.592E+00  1.220E-01
   1   13    8     7     2    1.4795E+02  3.0095E+00   1.4494E+02  0.000E+00  0.000E+00  0.000E+00  1.03477E+03  2.272E+00  5.523E+01  6.144E+00  1.633E-01
   1   13    7     7     3    1.4494E+02  2.4399E+00   1.4250E+02  0.000E+00  0.000E+00  0.000E+00  1.02968E+03  2.258E+00  5.516E+01  5.578E+00  1.458E-01
   1   13    6     8     1    1.4330E+02  7.3847E-01   1.4256E+02  0.000E+00  0.000E+00  0.000E+00  1.02464E+03  2.766E+00  4.011E+01  4.088E+00  6.022E-02
   1   13    5     8     2    1.4256E+02 -2.0597E+00   1.4462E+02  0.000E+00  0.000E+00  0.000E+00  1.01840E+03  2.771E+00  4.018E+01  4.095E+00 -1.677E-01
   1   13    4     8     3    1.4462E+02 -3.7852E+00   1.4841E+02  0.000E+00  0.000E+00  0.000E+00  1.01217E+03  2.792E+00  4.049E+01  4.126E+00 -3.058E-01
   1   13    3     8     4    1.4841E+02 -4.0311E+00   1.5244E+02  0.000E+00  0.000E+00  0.000E+00  1.00594E+03  2.820E+00  4.089E+01  4.167E+00 -3.225E-01
   1   13    2     8     5    1.5244E+02 -2.0773E+00   1.5452E+02  0.000E+00  0.000E+00  0.000E+00  9.99716E+02  2.841E+00  4.120E+01  4.198E+00 -1.649E-01
   1   13    1     8     6    1.5452E+02 -5.1161E-01   1.5503E+02  0.000E+00  0.000E+00  0.000E+00  9.94725E+02  2.850E+00  4.133E+01  2.527E+00 -6.749E-02



1
  VOLUMETRIC BUDGET FOR ENTIRE MODEL AT END OF TIME STEP  5 IN STRESS PERIOD  10
  ------------------------------------------------------------------------------

     CUMULATIVE VOLUMES      L**3       RATES FOR THIS TIME STEP      L**3/T
     ------------------                 ------------------------

           IN:                                      IN:
           ---                                      ---
             STORAGE =    74736000.0000               STORAGE =           1.2019
       CONSTANT HEAD =           0.0000         CONSTANT HEAD =           0.0000
               WELLS =           0.0000                 WELLS =           0.0000
     HEAD DEP BOUNDS =     5046297.5000       HEAD DEP BOUNDS =           0.2090
        UZF RECHARGE =   311813952.0000          UZF RECHARGE =          12.3935
               GW ET =           0.0000                 GW ET =           0.0000
     SURFACE LEAKAGE =           0.0000       SURFACE LEAKAGE =           0.0000
      STREAM LEAKAGE =  1042304064.0000        STREAM LEAKAGE =          43.2349

            TOTAL IN =  1433900288.0000              TOTAL IN =          57.0393

          OUT:                                     OUT:
          ----                                     ----
             STORAGE =   371778080.0000               STORAGE =          25.2590
       CONSTANT HEAD =           0.0000         CONSTANT HEAD =           0.0000
               WELLS =   315359968.0000                 WELLS =           0.0000
     HEAD DEP BOUNDS =     6366775.0000       HEAD DEP BOUNDS =           0.2632
        UZF RECHARGE =           0.0000          UZF RECHARGE =           0.0000
               GW ET =   414491680.0000                 GW ET =          18.2607
     SURFACE LEAKAGE =           0.0000       SURFACE LEAKAGE =           0.0000
      STREAM LEAKAGE =   325168992.0000        STREAM LEAKAGE =          13.2642

           TOTAL OUT =  1433165440.0000             TOTAL OUT =          57.0471

            IN - OUT =      734848.0000              IN - OUT =      -7.7248E-03

 PERCENT DISCREPANCY =           0.05     PERCENT DISCREPANCY =          -0.01






          TIME SUMMARY AT END OF TIME STEP   5 IN STRESS PERIOD   10
                    SECONDS     MINUTES      HOURS       DAYS        YEARS
                    -----------------------------------------------------------
   TIME STEP LENGTH 1.21100E+05  2018.3      33.639      1.4016     3.83743E-03
 STRESS PERIOD TIME 5.04972E+05  8416.2      140.27      5.8446     1.60016E-02
         TOTAL TIME 2.41570E+07 4.02616E+05  6710.3      279.59     0.76549    
1
 
 SOLVING FOR HEAD 
     9 ITERATIONS FOR TIME STEP   6 IN STRESS PERIOD   10

 MAXIMUM HEAD CHANGE FOR EACH ITERATION:

    HEAD CHANGE   HEAD CHANGE   HEAD CHANGE   HEAD CHANGE   HEAD CHANGE
  LAYER,ROW,COL LAYER,ROW,COL LAYER,ROW,COL LAYER,ROW,COL LAYER,ROW,COL
 ----------------------------------------------------------------------
     0.2690E-01    0.1332E-01    0.6638E-02    0.3314E-02    0.1657E-02
  (  1,  8,  4) (  1,  5,  1) (  1,  5,  1) (  1,  5,  1) (  1,  5,  1)
     0.8279E-03    0.4136E-03    0.2483E-03    0.1321E-03
  (  1,  5,  1) (  1,  5,  1) (  1,  5,  1) (  1,  5,  1)


 NO OUTPUT CONTROL FOR STRESS PERIOD   10   TIME STEP   6
 
 SOLVING FOR HEAD 
     9 ITERATIONS FOR TIME STEP   7 IN STRESS PERIOD   10

 MAXIMUM HEAD CHANGE FOR EACH ITERATION:

    HEAD CHANGE   HEAD CHANGE   HEAD CHANGE   HEAD CHANGE   HEAD CHANGE
  LAYER,ROW,COL LAYER,ROW,COL LAYER,ROW,COL LAYER,ROW,COL LAYER,ROW,COL
 ----------------------------------------------------------------------
     0.2935E-01    0.1376E-01    0.6758E-02    0.3354E-02    0.1672E-02
  (  1,  8,  4) (  1,  5,  1) (  1,  5,  1) (  1,  5,  1) (  1,  5,  1)
     0.7896E-03    0.4306E-03    0.2483E-03    0.1261E-03
  (  1,  5,  1) (  1,  5,  1) (  1,  6,  1) (  1,  5,  1)


 NO OUTPUT CONTROL FOR STRESS PERIOD   10   TIME STEP   7
 
 SOLVING FOR HEAD 
     8 ITERATIONS FOR TIME STEP   8 IN STRESS PERIOD   10

 MAXIMUM HEAD CHANGE FOR EACH ITERATION:

    HEAD CHANGE   HEAD CHANGE   HEAD CHANGE   HEAD CHANGE   HEAD CHANGE
  LAYER,ROW,COL LAYER,ROW,COL LAYER,ROW,COL LAYER,ROW,COL LAYER,ROW,COL
 ----------------------------------------------------------------------
     0.3186E-01    0.1477E-01    0.7258E-02    0.3553E-02    0.1811E-02
  (  1,  8,  4) (  1,  5,  1) (  1,  5,  1) (  1,  5,  1) (  1,  5,  1)
     0.8624E-03    0.4725E-03    0.1944E-03
  (  1,  5,  1) (  1,  5,  1) (  1,  5,  1)


 NO OUTPUT CONTROL FOR STRESS PERIOD   10   TIME STEP   8
 
 SOLVING FOR HEAD 
     9 ITERATIONS FOR TIME STEP   9 IN STRESS PERIOD   10

 MAXIMUM HEAD CHANGE FOR EACH ITERATION:

    HEAD CHANGE   HEAD CHANGE   HEAD CHANGE   HEAD CHANGE   HEAD CHANGE
  LAYER,ROW,COL LAYER,ROW,COL LAYER,ROW,COL LAYER,ROW,COL LAYER,ROW,COL
 ----------------------------------------------------------------------
     0.3458E-01    0.1600E-01    0.7931E-02    0.3897E-02    0.1934E-02
  (  1,  8,  4) (  1,  5,  1) (  1,  5,  1) (  1,  5,  1) (  1,  5,  1)
     0.9367E-03    0.4624E-03    0.2572E-03    0.1065E-03
  (  1,  5,  1) (  1,  5,  1) (  1,  5,  1) (  1,  5,  1)


 NO OUTPUT CONTROL FOR STRESS PERIOD   10   TIME STEP   9
 
 SOLVING FOR HEAD 
     9 ITERATIONS FOR TIME STEP  10 IN STRESS PERIOD   10

 MAXIMUM HEAD CHANGE FOR EACH ITERATION:

    HEAD CHANGE   HEAD CHANGE   HEAD CHANGE   HEAD CHANGE   HEAD CHANGE
  LAYER,ROW,COL LAYER,ROW,COL LAYER,ROW,COL LAYER,ROW,COL LAYER,ROW,COL
 ----------------------------------------------------------------------
     0.3753E-01    0.1584E-01    0.7643E-02    0.3705E-02    0.1829E-02
  (  1,  8,  4) (  1,  5,  1) (  1,  5,  1) (  1,  5,  1) (  1,  5,  1)
     0.8495E-03    0.4117E-03    0.2030E-03    0.1012E-03
  (  1,  5,  1) (  1,  5,  1) (  1,  5,  1) (  1,  5,  1)


 OUTPUT CONTROL FOR STRESS PERIOD   10   TIME STEP  10
    PRINT BUDGET
    SAVE BUDGET

  HEAD DEP BOUNDS   PERIOD   10   STEP  10
 BOUNDARY      1   LAYER   1   ROW    13   COL     1   RATE   -0.263171    
 BOUNDARY      2   LAYER   1   ROW    14   COL     9   RATE    0.208992    
 UBDSV3 SAVING "           GW ET" ON UNIT  61 AT TIME STEP 10, STRESS PERIOD  10
 UBDSV3 SAVING "    UZF INFILTR." ON UNIT  61 AT TIME STEP 10, STRESS PERIOD  10
 UBDSV3 SAVING "    UZF RECHARGE" ON UNIT  61 AT TIME STEP 10, STRESS PERIOD  10
 UBDSV3 SAVING " SURFACE LEAKAGE" ON UNIT  61 AT TIME STEP 10, STRESS PERIOD  10


UNSATURATED ZONE PACKAGE VOLUMETRIC BUDGET FOR  TIME STEP   10 STRESS PERIOD   10
  ------------------------------------------------------------------------------



     CUMULATIVE VOLUMES      L**3       RATES FOR THIS TIME STEP      L**3/T
     ------------------                 ------------------------

           IN:                                      IN:
           ---                                      ---
        INFILTRATION =  1470043437.2601          INFILTRATION =          16.9500

          OUT:                                     OUT:
          ----                                     ----
              UZF ET =  1859070132.0983                UZF ET =          56.5424
        UZF RECHARGE =   321410202.5831          UZF RECHARGE =          11.3771

            IN - OUT =  -710436897.4214              IN - OUT =         -50.9695

          STORAGE:                                 STORAGE:
          --------                                 --------
      STORAGE CHANGE =  -710233936.8625        STORAGE CHANGE =         -50.9683

 PERCENT DISCREPANCY IS DIFFERENCE BETWEEN IN-OUT MINUS CHANGE IN STORAGE
 DIVIDED BY THE AVERAGE OF IN AND OUT TIMES 100

 PERCENT DISCREPANCY =           0.00     PERCENT DISCREPANCY =           0.00









 STREAM LISTING     PERIOD     10   STEP       10

 LAYER ROW COL. STREAM  RCH.  FLOW INTO     FLOW TO   FLOW OUT OF   OVRLND.     DIRECT     STREAM       STREAM     STREAM     STREAM   STREAMBED  STREAMBED
                SEG.NO.  NO.  STRM. RCH.    AQUIFER    STRM. RCH.    RUNOFF     PRECIP       ET          HEAD       DEPTH      WIDTH   CONDCTNC.   GRADIENT

   1    1    1     1     1    2.5000E+01  1.0618E+00   2.3938E+01  0.000E+00  0.000E+00  0.000E+00  1.09422E+03  1.172E+00  1.296E+01  5.830E-01  6.070E-01
   1    2    2     1     2    2.3938E+01  3.0659E+00   2.0872E+01  0.000E+00  0.000E+00  0.000E+00  1.08920E+03  1.140E+00  1.253E+01  8.771E-01  1.165E+00
   1    3    3     1     3    2.0872E+01  2.9026E+00   1.7970E+01  0.000E+00  0.000E+00  0.000E+00  1.08351E+03  1.091E+00  1.183E+01  7.096E-01  1.364E+00
   1    3    4     1     4    1.7970E+01  2.4654E+00   1.5504E+01  0.000E+00  0.000E+00  0.000E+00  1.07845E+03  1.045E+00  1.098E+01  6.095E-01  1.348E+00
   1    4    5     2     1    5.5044E+00  2.6618E+00   2.8426E+00  0.000E+00  0.000E+00  0.000E+00  1.07235E+03  4.125E-01  1.200E+01  7.800E-01  1.138E+00
   1    5    6     2     2    2.8426E+00  1.9527E+00   8.8991E-01  0.000E+00  0.000E+00  0.000E+00  1.06676E+03  2.545E-01  1.200E+01  6.000E-01  1.085E+00
   1    6    6     2     3    8.8991E-01  8.8991E-01   0.0000E+00  0.000E+00  0.000E+00  0.000E+00  1.06183E+03  3.672E-02  1.200E+01  6.000E-01  1.012E+00
   1    7    6     2     4    0.0000E+00  0.0000E+00   0.0000E+00  0.000E+00  0.000E+00  0.000E+00  1.05708E+03  0.000E+00  1.200E+01  6.000E-01  1.000E+00
   1    8    6     2     5    0.0000E+00  0.0000E+00   0.0000E+00  0.000E+00  0.000E+00  0.000E+00  1.05236E+03  0.000E+00  1.200E+01  6.000E-01  1.000E+00
   1    3    5     3     1    1.0000E+01  2.8252E+00   7.1748E+00  0.000E+00  0.000E+00  0.000E+00  1.07555E+03  1.909E+00  9.636E+00  7.227E-01  1.955E+00
   1    3    6     3     2    7.1748E+00  1.7860E+00   5.3888E+00  0.000E+00  0.000E+00  0.000E+00  1.07264E+03  1.727E+00  8.909E+00  6.682E-01  1.336E+00
   1    3    7     3     3    5.3888E+00  8.2894E-01   4.5599E+00  0.000E+00  0.000E+00  0.000E+00  1.06987E+03  1.555E+00  8.218E+00  5.547E-01  7.472E-01
   1    4    8     3     4    4.5599E+00  1.5570E+00   3.0029E+00  0.000E+00  0.000E+00  0.000E+00  1.06682E+03  1.364E+00  7.455E+00  6.709E-01  1.160E+00
   1    5    8     3     5    3.0029E+00  1.5790E+00   1.4239E+00  0.000E+00  0.000E+00  0.000E+00  1.06362E+03  1.164E+00  6.655E+00  4.991E-01  1.582E+00
   1    6    8     3     6    1.4239E+00  5.5980E-01   8.6413E-01  0.000E+00  0.000E+00  0.000E+00  1.06158E+03  1.036E+00  6.145E+00  1.844E-01  1.518E+00
   1    5   10     4     1    1.0000E+01  9.0525E-01   9.0947E+00  0.000E+00  0.000E+00  0.000E+00  1.07835E+03  6.210E-01  1.000E+01  2.500E-01  1.207E+00
   1    5    9     4     2    9.0947E+00  1.7835E+00   7.3113E+00  0.000E+00  0.000E+00  0.000E+00  1.07148E+03  5.670E-01  1.000E+01  5.000E-01  1.189E+00
   1    6    8     4     3    7.3113E+00  1.2257E+00   6.0855E+00  0.000E+00  0.000E+00  0.000E+00  1.06368E+03  5.021E-01  1.000E+01  3.500E-01  1.167E+00
   1    6    8     5     1    6.9497E+00  8.8398E-01   6.0657E+00  0.000E+00  0.000E+00  0.000E+00  1.05858E+03  5.779E-01  1.169E+01  4.676E-01  6.301E-01
   1    7    7     5     2    6.0657E+00  1.7657E+00   4.3000E+00  0.000E+00  0.000E+00  0.000E+00  1.05403E+03  5.336E-01  1.020E+01  5.099E-01  1.154E+00
   1    8    7     5     3    4.3000E+00  1.0282E+00   3.2717E+00  0.000E+00  0.000E+00  0.000E+00  1.04973E+03  4.781E-01  8.447E+00  2.956E-01  1.159E+00
   1    8    6     5     4    3.2717E+00  6.2626E-01   2.6455E+00  0.000E+00  0.000E+00  0.000E+00  1.04669E+03  4.385E-01  7.285E+00  1.821E-01  1.146E+00
   1    9    6     6     1    2.6455E+00  1.9446E+00   7.0085E-01  0.000E+00  0.000E+00  0.000E+00  1.04297E+03  2.410E-01  1.200E+01  6.000E-01  1.080E+00
   1   10    7     6     2    7.0085E-01  7.0085E-01   0.0000E+00  0.000E+00  0.000E+00  0.000E+00  1.03821E+03  3.218E-02  1.200E+01  6.000E-01  1.011E+00
   1   11    7     6     3    0.0000E+00  0.0000E+00   0.0000E+00  0.000E+00  0.000E+00  0.000E+00  1.03364E+03  0.000E+00  1.200E+01  6.000E-01  1.000E+00
   1   12    7     6     4    0.0000E+00  0.0000E+00   0.0000E+00  0.000E+00  0.000E+00  0.000E+00  1.02909E+03  0.000E+00  1.200E+01  6.000E-01  2.697E-01
   1   13    7     6     5    0.0000E+00 -7.9921E-01   7.9921E-01  0.000E+00  0.000E+00  0.000E+00  1.02591E+03  0.000E+00  1.200E+01  2.400E-01 -1.110E+00
   1   14    9     7     1    1.5000E+02  2.0485E+00   1.4795E+02  0.000E+00  0.000E+00  0.000E+00  1.03987E+03  2.286E+00  5.529E+01  5.592E+00  1.221E-01
   1   13    8     7     2    1.4795E+02  3.0123E+00   1.4494E+02  0.000E+00  0.000E+00  0.000E+00  1.03477E+03  2.272E+00  5.523E+01  6.144E+00  1.634E-01
   1   13    7     7     3    1.4494E+02  2.4429E+00   1.4250E+02  0.000E+00  0.000E+00  0.000E+00  1.02968E+03  2.258E+00  5.516E+01  5.578E+00  1.460E-01
   1   13    6     8     1    1.4330E+02  7.3863E-01   1.4256E+02  0.000E+00  0.000E+00  0.000E+00  1.02464E+03  2.766E+00  4.011E+01  4.087E+00  6.024E-02
   1   13    5     8     2    1.4256E+02 -2.0652E+00   1.4462E+02  0.000E+00  0.000E+00  0.000E+00  1.01840E+03  2.771E+00  4.018E+01  4.095E+00 -1.681E-01
   1   13    4     8     3    1.4462E+02 -3.7849E+00   1.4841E+02  0.000E+00  0.000E+00  0.000E+00  1.01217E+03  2.792E+00  4.049E+01  4.126E+00 -3.058E-01
   1   13    3     8     4    1.4841E+02 -4.0299E+00   1.5244E+02  0.000E+00  0.000E+00  0.000E+00  1.00594E+03  2.820E+00  4.089E+01  4.167E+00 -3.224E-01
   1   13    2     8     5    1.5244E+02 -2.0760E+00   1.5451E+02  0.000E+00  0.000E+00  0.000E+00  9.99716E+02  2.841E+00  4.120E+01  4.198E+00 -1.648E-01
   1   13    1     8     6    1.5451E+02 -5.0654E-01   1.5502E+02  0.000E+00  0.000E+00  0.000E+00  9.94725E+02  2.850E+00  4.133E+01  2.527E+00 -6.682E-02



1
  VOLUMETRIC BUDGET FOR ENTIRE MODEL AT END OF TIME STEP 10 IN STRESS PERIOD  10
  ------------------------------------------------------------------------------

     CUMULATIVE VOLUMES      L**3       RATES FOR THIS TIME STEP      L**3/T
     ------------------                 ------------------------

           IN:                                      IN:
           ---                                      ---
             STORAGE =    75809704.0000               STORAGE =           1.3384
       CONSTANT HEAD =           0.0000         CONSTANT HEAD =           0.0000
               WELLS =           0.0000                 WELLS =           0.0000
     HEAD DEP BOUNDS =     5216258.5000       HEAD DEP BOUNDS =           0.2090
        UZF RECHARGE =   321410208.0000          UZF RECHARGE =          11.3771
               GW ET =           0.0000                 GW ET =           0.0000
     SURFACE LEAKAGE =           0.0000       SURFACE LEAKAGE =           0.0000
      STREAM LEAKAGE =  1077469056.0000        STREAM LEAKAGE =          43.2422

            TOTAL IN =  1479905280.0000              TOTAL IN =          56.1668

          OUT:                                     OUT:
          ----                                     ----
             STORAGE =   391914208.0000               STORAGE =          24.3403
       CONSTANT HEAD =           0.0000         CONSTANT HEAD =           0.0000
               WELLS =   315359968.0000                 WELLS =           0.0000
     HEAD DEP BOUNDS =     6580825.0000       HEAD DEP BOUNDS =           0.2632
        UZF RECHARGE =           0.0000          UZF RECHARGE =           0.0000
               GW ET =   429351360.0000                 GW ET =          18.2791
     SURFACE LEAKAGE =           0.0000       SURFACE LEAKAGE =           0.0000
      STREAM LEAKAGE =   335956128.0000        STREAM LEAKAGE =          13.2617

           TOTAL OUT =  1479162496.0000             TOTAL OUT =          56.1444

            IN - OUT =      742784.0000              IN - OUT =       2.2400E-02

 PERCENT DISCREPANCY =           0.05     PERCENT DISCREPANCY =           0.04






          TIME SUMMARY AT END OF TIME STEP  10 IN STRESS PERIOD   10
                    SECONDS     MINUTES      HOURS       DAYS        YEARS
                    -----------------------------------------------------------
   TIME STEP LENGTH 1.95033E+05  3250.6      54.176      2.2573     6.18023E-03
 STRESS PERIOD TIME 1.31823E+06  21971.      366.18      15.257     4.17723E-02
         TOTAL TIME 2.49702E+07 4.16170E+05  6936.2      289.01     0.79126    
1
 
 SOLVING FOR HEAD 
     9 ITERATIONS FOR TIME STEP  11 IN STRESS PERIOD   10

 MAXIMUM HEAD CHANGE FOR EACH ITERATION:

    HEAD CHANGE   HEAD CHANGE   HEAD CHANGE   HEAD CHANGE   HEAD CHANGE
  LAYER,ROW,COL LAYER,ROW,COL LAYER,ROW,COL LAYER,ROW,COL LAYER,ROW,COL
 ----------------------------------------------------------------------
     0.4058E-01    0.1606E-01    0.7801E-02    0.3754E-02    0.1815E-02
  (  1,  8,  4) (  1,  5,  1) (  1,  5,  1) (  1,  5,  1) (  1,  5,  1)
     0.8946E-03    0.4444E-03    0.2218E-03    0.1083E-03
  (  1,  5,  1) (  1,  5,  1) (  1,  5,  1) (  1,  7,  1)


 NO OUTPUT CONTROL FOR STRESS PERIOD   10   TIME STEP  11
 
 SOLVING FOR HEAD 
    10 ITERATIONS FOR TIME STEP  12 IN STRESS PERIOD   10

 MAXIMUM HEAD CHANGE FOR EACH ITERATION:

    HEAD CHANGE   HEAD CHANGE   HEAD CHANGE   HEAD CHANGE   HEAD CHANGE
  LAYER,ROW,COL LAYER,ROW,COL LAYER,ROW,COL LAYER,ROW,COL LAYER,ROW,COL
 ----------------------------------------------------------------------
     0.4916E-01    0.2447E-01    0.1221E-01    0.6099E-02    0.2975E-02
  (  1,  7,  1) (  1,  7,  1) (  1,  7,  1) (  1,  7,  1) (  1,  7,  1)
     0.1473E-02    0.7331E-03    0.3660E-03    0.2194E-03    0.1168E-03
  (  1,  7,  1) (  1,  7,  1) (  1,  7,  1) (  1,  7,  1) (  1,  7,  1)


 NO OUTPUT CONTROL FOR STRESS PERIOD   10   TIME STEP  12
 
 SOLVING FOR HEAD 
     9 ITERATIONS FOR TIME STEP  13 IN STRESS PERIOD   10

 MAXIMUM HEAD CHANGE FOR EACH ITERATION:

    HEAD CHANGE   HEAD CHANGE   HEAD CHANGE   HEAD CHANGE   HEAD CHANGE
  LAYER,ROW,COL LAYER,ROW,COL LAYER,ROW,COL LAYER,ROW,COL LAYER,ROW,COL
 ----------------------------------------------------------------------
     0.5148E-01    0.2558E-01    0.1267E-01    0.6234E-02    0.3095E-02
  (  1,  7,  1) (  1,  7,  1) (  1,  7,  1) (  1,  7,  1) (  1,  7,  1)
     0.1503E-02    0.7025E-03    0.3817E-03    0.1564E-03
  (  1,  7,  1) (  1,  7,  1) (  1,  7,  1) (  1,  7,  1)


 NO OUTPUT CONTROL FOR STRESS PERIOD   10   TIME STEP  13
 
 SOLVING FOR HEAD 
     9 ITERATIONS FOR TIME STEP  14 IN STRESS PERIOD   10

 MAXIMUM HEAD CHANGE FOR EACH ITERATION:

    HEAD CHANGE   HEAD CHANGE   HEAD CHANGE   HEAD CHANGE   HEAD CHANGE
  LAYER,ROW,COL LAYER,ROW,COL LAYER,ROW,COL LAYER,ROW,COL LAYER,ROW,COL
 ----------------------------------------------------------------------
     0.5442E-01    0.2689E-01    0.1324E-01    0.6537E-02    0.3251E-02
  (  1,  7,  1) (  1,  7,  1) (  1,  7,  1) (  1,  7,  1) (  1,  7,  1)
     0.1534E-02    0.7484E-03    0.4142E-03    0.1714E-03
  (  1,  7,  1) (  1,  7,  1) (  1,  7,  1) (  1,  7,  1)


 NO OUTPUT CONTROL FOR STRESS PERIOD   10   TIME STEP  14
 
 SOLVING FOR HEAD 
    10 ITERATIONS FOR TIME STEP  15 IN STRESS PERIOD   10

 MAXIMUM HEAD CHANGE FOR EACH ITERATION:

    HEAD CHANGE   HEAD CHANGE   HEAD CHANGE   HEAD CHANGE   HEAD CHANGE
  LAYER,ROW,COL LAYER,ROW,COL LAYER,ROW,COL LAYER,ROW,COL LAYER,ROW,COL
 ----------------------------------------------------------------------
     0.5487E-01    0.2711E-01    0.1339E-01    0.6562E-02    0.3254E-02
  (  1,  7,  1) (  1,  7,  1) (  1,  7,  1) (  1,  7,  1) (  1,  7,  1)
     0.1528E-02    0.7902E-03    0.3916E-03    0.2644E-03    0.8372E-04
  (  1, 15,  6) (  1,  7,  1) (  1, 15,  6) (  1,  7,  1) (  1, 15,  6)


 OUTPUT CONTROL FOR STRESS PERIOD   10   TIME STEP  15
    PRINT BUDGET
    PRINT HEAD FOR ALL LAYERS
    SAVE HEAD FOR ALL LAYERS
    SAVE BUDGET

  HEAD DEP BOUNDS   PERIOD   10   STEP  15
 BOUNDARY      1   LAYER   1   ROW    13   COL     1   RATE   -0.263084    
 BOUNDARY      2   LAYER   1   ROW    14   COL     9   RATE    0.209085    
 UBDSV3 SAVING "           GW ET" ON UNIT  61 AT TIME STEP 15, STRESS PERIOD  10
 UBDSV3 SAVING "    UZF INFILTR." ON UNIT  61 AT TIME STEP 15, STRESS PERIOD  10
 UBDSV3 SAVING "    UZF RECHARGE" ON UNIT  61 AT TIME STEP 15, STRESS PERIOD  10
 UBDSV3 SAVING " SURFACE LEAKAGE" ON UNIT  61 AT TIME STEP 15, STRESS PERIOD  10


UNSATURATED ZONE PACKAGE VOLUMETRIC BUDGET FOR  TIME STEP   15 STRESS PERIOD   10
  ------------------------------------------------------------------------------



     CUMULATIVE VOLUMES      L**3       RATES FOR THIS TIME STEP      L**3/T
     ------------------                 ------------------------

           IN:                                      IN:
           ---                                      ---
        INFILTRATION =  1492243976.8775          INFILTRATION =          16.9500

          OUT:                                     OUT:
          ----                                     ----
              UZF ET =  1930730850.4499                UZF ET =          52.0328
        UZF RECHARGE =   336959984.1083          UZF RECHARGE =          12.1145

            IN - OUT =  -775446857.6808              IN - OUT =         -47.1973

          STORAGE:                                 STORAGE:
          --------                                 --------
      STORAGE CHANGE =  -775233950.5243        STORAGE CHANGE =         -47.1801

 PERCENT DISCREPANCY IS DIFFERENCE BETWEEN IN-OUT MINUS CHANGE IN STORAGE
 DIVIDED BY THE AVERAGE OF IN AND OUT TIMES 100

 PERCENT DISCREPANCY =           0.00     PERCENT DISCREPANCY =          -0.03









 STREAM LISTING     PERIOD     10   STEP       15

 LAYER ROW COL. STREAM  RCH.  FLOW INTO     FLOW TO   FLOW OUT OF   OVRLND.     DIRECT     STREAM       STREAM     STREAM     STREAM   STREAMBED  STREAMBED
                SEG.NO.  NO.  STRM. RCH.    AQUIFER    STRM. RCH.    RUNOFF     PRECIP       ET          HEAD       DEPTH      WIDTH   CONDCTNC.   GRADIENT

   1    1    1     1     1    2.5000E+01  1.0642E+00   2.3936E+01  0.000E+00  0.000E+00  0.000E+00  1.09422E+03  1.172E+00  1.296E+01  5.830E-01  6.084E-01
   1    2    2     1     2    2.3936E+01  3.0672E+00   2.0869E+01  0.000E+00  0.000E+00  0.000E+00  1.08920E+03  1.140E+00  1.253E+01  8.770E-01  1.166E+00
   1    3    3     1     3    2.0869E+01  2.9023E+00   1.7966E+01  0.000E+00  0.000E+00  0.000E+00  1.08351E+03  1.091E+00  1.182E+01  7.095E-01  1.364E+00
   1    3    4     1     4    1.7966E+01  2.4651E+00   1.5501E+01  0.000E+00  0.000E+00  0.000E+00  1.07845E+03  1.045E+00  1.098E+01  6.095E-01  1.348E+00
   1    4    5     2     1    5.5013E+00  2.6616E+00   2.8396E+00  0.000E+00  0.000E+00  0.000E+00  1.07235E+03  4.123E-01  1.200E+01  7.800E-01  1.137E+00
   1    5    6     2     2    2.8396E+00  1.9526E+00   8.8707E-01  0.000E+00  0.000E+00  0.000E+00  1.06676E+03  2.543E-01  1.200E+01  6.000E-01  1.085E+00
   1    6    6     2     3    8.8707E-01  8.8707E-01   0.0000E+00  0.000E+00  0.000E+00  0.000E+00  1.06183E+03  3.665E-02  1.200E+01  6.000E-01  1.012E+00
   1    7    6     2     4    0.0000E+00  0.0000E+00   0.0000E+00  0.000E+00  0.000E+00  0.000E+00  1.05708E+03  0.000E+00  1.200E+01  6.000E-01  1.000E+00
   1    8    6     2     5    0.0000E+00  0.0000E+00   0.0000E+00  0.000E+00  0.000E+00  0.000E+00  1.05236E+03  0.000E+00  1.200E+01  6.000E-01  1.000E+00
   1    3    5     3     1    1.0000E+01  2.8252E+00   7.1748E+00  0.000E+00  0.000E+00  0.000E+00  1.07555E+03  1.909E+00  9.636E+00  7.227E-01  1.955E+00
   1    3    6     3     2    7.1748E+00  1.8368E+00   5.3380E+00  0.000E+00  0.000E+00  0.000E+00  1.07264E+03  1.727E+00  8.909E+00  6.682E-01  1.374E+00
   1    3    7     3     3    5.3380E+00  8.6759E-01   4.4704E+00  0.000E+00  0.000E+00  0.000E+00  1.06987E+03  1.555E+00  8.218E+00  5.547E-01  7.820E-01
   1    4    8     3     4    4.4704E+00  1.5610E+00   2.9094E+00  0.000E+00  0.000E+00  0.000E+00  1.06682E+03  1.364E+00  7.455E+00  6.709E-01  1.163E+00
   1    5    8     3     5    2.9094E+00  1.5790E+00   1.3304E+00  0.000E+00  0.000E+00  0.000E+00  1.06362E+03  1.164E+00  6.655E+00  4.991E-01  1.582E+00
   1    6    8     3     6    1.3304E+00  5.5980E-01   7.7065E-01  0.000E+00  0.000E+00  0.000E+00  1.06158E+03  1.036E+00  6.145E+00  1.844E-01  1.518E+00
   1    5   10     4     1    1.0000E+01  9.0525E-01   9.0947E+00  0.000E+00  0.000E+00  0.000E+00  1.07835E+03  6.210E-01  1.000E+01  2.500E-01  1.207E+00
   1    5    9     4     2    9.0947E+00  1.7835E+00   7.3113E+00  0.000E+00  0.000E+00  0.000E+00  1.07148E+03  5.670E-01  1.000E+01  5.000E-01  1.189E+00
   1    6    8     4     3    7.3113E+00  1.2257E+00   6.0855E+00  0.000E+00  0.000E+00  0.000E+00  1.06368E+03  5.021E-01  1.000E+01  3.500E-01  1.167E+00
   1    6    8     5     1    6.8562E+00  8.6475E-01   5.9914E+00  0.000E+00  0.000E+00  0.000E+00  1.05858E+03  5.752E-01  1.160E+01  4.640E-01  6.212E-01
   1    7    7     5     2    5.9914E+00  1.7230E+00   4.2684E+00  0.000E+00  0.000E+00  0.000E+00  1.05403E+03  5.317E-01  1.014E+01  5.068E-01  1.133E+00
   1    8    7     5     3    4.2684E+00  1.0231E+00   3.2453E+00  0.000E+00  0.000E+00  0.000E+00  1.04973E+03  4.768E-01  8.408E+00  2.943E-01  1.159E+00
   1    8    6     5     4    3.2453E+00  6.1212E-01   2.6332E+00  0.000E+00  0.000E+00  0.000E+00  1.04669E+03  4.375E-01  7.257E+00  1.814E-01  1.125E+00
   1    9    6     6     1    2.6332E+00  1.9440E+00   6.8916E-01  0.000E+00  0.000E+00  0.000E+00  1.04297E+03  2.400E-01  1.200E+01  6.000E-01  1.080E+00
   1   10    7     6     2    6.8916E-01  6.8916E-01   0.0000E+00  0.000E+00  0.000E+00  0.000E+00  1.03821E+03  3.185E-02  1.200E+01  6.000E-01  1.011E+00
   1   11    7     6     3    0.0000E+00  0.0000E+00   0.0000E+00  0.000E+00  0.000E+00  0.000E+00  1.03364E+03  0.000E+00  1.200E+01  6.000E-01  1.000E+00
   1   12    7     6     4    0.0000E+00  0.0000E+00   0.0000E+00  0.000E+00  0.000E+00  0.000E+00  1.02909E+03  0.000E+00  1.200E+01  6.000E-01  2.669E-01
   1   13    7     6     5    0.0000E+00 -7.9914E-01   7.9914E-01  0.000E+00  0.000E+00  0.000E+00  1.02591E+03  0.000E+00  1.200E+01  2.400E-01 -1.110E+00
   1   14    9     7     1    1.5000E+02  2.0619E+00   1.4794E+02  0.000E+00  0.000E+00  0.000E+00  1.03987E+03  2.286E+00  5.529E+01  5.592E+00  1.229E-01
   1   13    8     7     2    1.4794E+02  3.0285E+00   1.4491E+02  0.000E+00  0.000E+00  0.000E+00  1.03477E+03  2.272E+00  5.523E+01  6.144E+00  1.643E-01
   1   13    7     7     3    1.4491E+02  2.4435E+00   1.4247E+02  0.000E+00  0.000E+00  0.000E+00  1.02968E+03  2.258E+00  5.516E+01  5.578E+00  1.460E-01
   1   13    6     8     1    1.4327E+02  7.0547E-01   1.4256E+02  0.000E+00  0.000E+00  0.000E+00  1.02464E+03  2.766E+00  4.011E+01  4.087E+00  5.753E-02
   1   13    5     8     2    1.4256E+02 -2.0583E+00   1.4462E+02  0.000E+00  0.000E+00  0.000E+00  1.01840E+03  2.771E+00  4.018E+01  4.095E+00 -1.676E-01
   1   13    4     8     3    1.4462E+02 -3.7747E+00   1.4839E+02  0.000E+00  0.000E+00  0.000E+00  1.01217E+03  2.792E+00  4.048E+01  4.126E+00 -3.050E-01
   1   13    3     8     4    1.4839E+02 -4.0090E+00   1.5240E+02  0.000E+00  0.000E+00  0.000E+00  1.00594E+03  2.820E+00  4.088E+01  4.166E+00 -3.207E-01
   1   13    2     8     5    1.5240E+02 -2.0634E+00   1.5447E+02  0.000E+00  0.000E+00  0.000E+00  9.99716E+02  2.841E+00  4.119E+01  4.198E+00 -1.639E-01
   1   13    1     8     6    1.5447E+02 -5.0155E-01   1.5497E+02  0.000E+00  0.000E+00  0.000E+00  9.94725E+02  2.850E+00  4.132E+01  2.526E+00 -6.617E-02



1
              HEAD IN LAYER   1 AT END OF TIME STEP  15 IN STRESS PERIOD   10
  ---------------------------------------------------------------------------

           1       2       3       4       5       6       7       8       9      10
 ...................................................................................
   1  1092.39 1088.64 6999.00 6999.00 6999.00 6999.00 6999.00 6999.00 6999.00 6999.00
   2  1089.05 1085.70 1079.27 6999.00 6999.00 1073.85 1072.78 1070.87 6999.00 6999.00
   3  6999.00 1077.37 1074.49 1070.37 1071.10 1069.89 1068.31 1067.98 6999.00 6999.00
   4  1069.16 1068.59 1066.96 1063.56 1062.41 1061.10 1061.73 1064.49 1063.89 6999.00
   5  1064.71 1061.55 1059.16 1057.46 1057.16 1057.62 1057.45 1059.52 1062.97 1065.37
   6  1059.98 1055.67 1052.95 1051.85 1052.07 1053.21 1054.37 1056.71 1059.49 1063.70
   7  1055.88 1050.01 1047.23 1046.47 1046.98 1048.36 1050.63 1052.96 1054.28 6999.00
   8  6999.00 1042.67 1041.20 1040.99 1041.75 1043.31 1044.99 1047.39 1049.24 6999.00
   9  6999.00 1035.70 1035.17 1035.56 1036.62 1038.37 1039.15 1040.94 1043.81 6999.00
  10  6999.00 1028.61 1029.06 1030.36 1031.70 1033.27 1034.48 1036.40 1040.09 1044.40
  11  6999.00 1019.75 1021.48 1025.10 1027.10 1029.12 1030.60 1032.90 1036.35 6999.00
  12  1001.20 1008.86 1014.12 1019.01 1022.66 1025.88 1028.29 1031.05 1034.89 6999.00
  13   994.92 1000.21 1006.91 1013.08 1018.90 1024.47 1029.24 1034.28 1036.39 6999.00
  14  6999.00 1005.83 1011.45 1016.17 1021.20 1025.89 1030.18 1035.25 1039.50 6999.00
  15  6999.00 6999.00 1018.84 1021.83 1025.57 1028.63 6999.00 6999.00 6999.00 6999.00

 HEAD WILL BE SAVED ON UNIT   58 AT END OF TIME STEP  15, STRESS PERIOD   10
1
  VOLUMETRIC BUDGET FOR ENTIRE MODEL AT END OF TIME STEP 15 IN STRESS PERIOD  10
  ------------------------------------------------------------------------------

     CUMULATIVE VOLUMES      L**3       RATES FOR THIS TIME STEP      L**3/T
     ------------------                 ------------------------

           IN:                                      IN:
           ---                                      ---
             STORAGE =    77550696.0000               STORAGE =           1.3016
       CONSTANT HEAD =           0.0000         CONSTANT HEAD =           0.0000
               WELLS =           0.0000                 WELLS =           0.0000
     HEAD DEP BOUNDS =     5490042.0000       HEAD DEP BOUNDS =           0.2091
        UZF RECHARGE =   336960000.0000          UZF RECHARGE =          12.1145
               GW ET =           0.0000                 GW ET =           0.0000
     SURFACE LEAKAGE =           0.0000       SURFACE LEAKAGE =           0.0000
      STREAM LEAKAGE =  1134097920.0000        STREAM LEAKAGE =          43.2393

            TOTAL IN =  1554098688.0000              TOTAL IN =          56.8646

          OUT:                                     OUT:
          ----                                     ----
             STORAGE =   424225216.0000               STORAGE =          24.6840
       CONSTANT HEAD =           0.0000         CONSTANT HEAD =           0.0000
               WELLS =   315359968.0000                 WELLS =           0.0000
     HEAD DEP BOUNDS =     6925446.0000       HEAD DEP BOUNDS =           0.2631
        UZF RECHARGE =           0.0000          UZF RECHARGE =           0.0000
               GW ET =   453532448.0000                 GW ET =          18.6838
     SURFACE LEAKAGE =           0.0000       SURFACE LEAKAGE =           0.0000
      STREAM LEAKAGE =   353285088.0000        STREAM LEAKAGE =          13.2060

           TOTAL OUT =  1553328128.0000             TOTAL OUT =          56.8368

            IN - OUT =      770560.0000              IN - OUT =       2.7748E-02

 PERCENT DISCREPANCY =           0.05     PERCENT DISCREPANCY =           0.05






          TIME SUMMARY AT END OF TIME STEP  15 IN STRESS PERIOD   10
                    SECONDS     MINUTES      HOURS       DAYS        YEARS
                    -----------------------------------------------------------
   TIME STEP LENGTH 3.14103E+05  5235.0      87.251      3.6354     9.95332E-03
 STRESS PERIOD TIME 2.62800E+06  43800.      730.00      30.417     8.32763E-02
         TOTAL TIME 2.62800E+07 4.38000E+05  7300.0      304.17     0.83276    
1
1
                            STRESS PERIOD NO.   11, LENGTH =   2628000.    
                            -----------------------------------------------

                              NUMBER OF TIME STEPS =    15

                               MULTIPLIER FOR DELT =     1.100

                            INITIAL TIME STEP SIZE =   82713.07    

 WELL NO.  LAYER   ROW   COL   STRESS RATE         
 --------------------------------------------------
      1      1      6      4      -3.000    
      2      1      6      5      -3.000    
      3      1      7      4      -3.000    
      4      1      7      5      -3.000    
      5      1      8      4      -3.000    
      6      1      8      5      -3.000    
      7      1      9      4      -3.000    
      8      1      9      5      -3.000    
      9      1     10      4      -3.000    
     10      1     10      5      -3.000    

     10 WELLS

 REUSING NON-PARAMETER GHB CELLS FROM LAST STRESS PERIOD

      2 GHB CELLS

 REUSING STREAM SEGMENT DATA FROM LAST STRESS PERIOD



            AREAL INFILTRATION RATE
 READING ON UNIT   19 WITH FORMAT: (10F4.0)            

            1           2           3           4           5           6           7           8           9          10
 ........................................................................................................................
   1   1.0000E-09  2.0000E-09   0.000       0.000       0.000       0.000       0.000       0.000       0.000       0.000    
   2   2.0000E-09  1.0000E-09  2.0000E-09   0.000       0.000      8.0000E-09  8.0000E-09  5.0000E-09   0.000       0.000    
   3    0.000      5.0000E-09  1.0000E-09  1.0000E-09  8.0000E-09  8.0000E-09  5.0000E-09  5.0000E-09   0.000       0.000    
   4   8.0000E-09  5.0000E-09  1.0000E-09  1.0000E-09  1.0000E-09  1.0000E-09  1.0000E-09  1.0000E-09  2.0000E-09   0.000    
   5   8.0000E-09  5.0000E-09  1.0000E-09  1.0000E-09  1.0000E-09  1.0000E-09  1.0000E-09  1.0000E-09  1.0000E-09  1.0000E-09
   6   8.0000E-09  5.0000E-09  5.0000E-09  2.0000E-09  2.0000E-09  1.0000E-09  1.0000E-09  1.0000E-09  1.0000E-09  5.0000E-09
   7   8.0000E-09  5.0000E-09  5.0000E-09  2.0000E-09  2.0000E-09  1.0000E-09  1.0000E-09  2.0000E-09  2.0000E-09   0.000    
   8    0.000      5.0000E-09  5.0000E-09  2.0000E-09  2.0000E-09  1.0000E-09  1.0000E-09  2.0000E-09  5.0000E-09   0.000    
   9    0.000      5.0000E-09  5.0000E-09  2.0000E-09  2.0000E-09  1.0000E-09  1.0000E-09  2.0000E-09  5.0000E-09   0.000    
  10    0.000      5.0000E-09  5.0000E-09  2.0000E-09  2.0000E-09  1.0000E-09  1.0000E-09  2.0000E-09  5.0000E-09  8.0000E-09
  11    0.000      1.0000E-09  1.0000E-09  1.0000E-09  1.0000E-09  1.0000E-09  1.0000E-09  2.0000E-09  5.0000E-09   0.000    
  12   1.0000E-09  1.0000E-09  1.0000E-09  1.0000E-09  1.0000E-09  1.0000E-09  1.0000E-09  1.0000E-09  2.0000E-09   0.000    
  13   1.0000E-09  1.0000E-09  2.0000E-09  2.0000E-09  2.0000E-09  2.0000E-09  2.0000E-09  1.0000E-09  1.0000E-09   0.000    
  14    0.000      2.0000E-09  5.0000E-09  5.0000E-09  5.0000E-09  5.0000E-09  5.0000E-09  2.0000E-09  1.0000E-09   0.000    
  15    0.000       0.000      8.0000E-09  8.0000E-09  8.0000E-09  8.0000E-09   0.000       0.000       0.000       0.000    

USING ET RATE FROM PREVIOUS STRESS PERIOD. CURRENT PERIOD IS:      11

 USING ET EXTINCTION DEPTH FROM PREVIOUS STRESS PERIOD. CURRENT PERIOD IS:      11

 USING EXTINCTION WATER CONTENT FROM PREVIOUS STRESS PERIOD. CURRENT PERIOD IS:      11
 
 SOLVING FOR HEAD 

     8 ITERATIONS FOR TIME STEP   1 IN STRESS PERIOD   11

 MAXIMUM HEAD CHANGE FOR EACH ITERATION:

    HEAD CHANGE   HEAD CHANGE   HEAD CHANGE   HEAD CHANGE   HEAD CHANGE
  LAYER,ROW,COL LAYER,ROW,COL LAYER,ROW,COL LAYER,ROW,COL LAYER,ROW,COL
 ----------------------------------------------------------------------
    -0.2917E-01    0.7257E-02    0.3565E-02    0.1796E-02    0.8748E-03
  (  1,  6,  5) (  1, 15,  6) (  1, 15,  6) (  1, 15,  6) (  1, 15,  6)
     0.4328E-03    0.2412E-03    0.9981E-04
  (  1, 15,  6) (  1, 15,  6) (  1, 15,  6)


 NO OUTPUT CONTROL FOR STRESS PERIOD   11   TIME STEP   1
 
 SOLVING FOR HEAD 
     8 ITERATIONS FOR TIME STEP   2 IN STRESS PERIOD   11

 MAXIMUM HEAD CHANGE FOR EACH ITERATION:

    HEAD CHANGE   HEAD CHANGE   HEAD CHANGE   HEAD CHANGE   HEAD CHANGE
  LAYER,ROW,COL LAYER,ROW,COL LAYER,ROW,COL LAYER,ROW,COL LAYER,ROW,COL
 ----------------------------------------------------------------------
    -0.3145E-01    0.7980E-02    0.3921E-02    0.1975E-02    0.9620E-03
  (  1,  6,  5) (  1, 15,  6) (  1, 15,  6) (  1, 15,  6) (  1, 15,  6)
     0.4759E-03    0.2653E-03    0.1098E-03
  (  1, 15,  6) (  1, 15,  6) (  1, 15,  6)


 NO OUTPUT CONTROL FOR STRESS PERIOD   11   TIME STEP   2
 
 SOLVING FOR HEAD 
     8 ITERATIONS FOR TIME STEP   3 IN STRESS PERIOD   11

 MAXIMUM HEAD CHANGE FOR EACH ITERATION:

    HEAD CHANGE   HEAD CHANGE   HEAD CHANGE   HEAD CHANGE   HEAD CHANGE
  LAYER,ROW,COL LAYER,ROW,COL LAYER,ROW,COL LAYER,ROW,COL LAYER,ROW,COL
 ----------------------------------------------------------------------
    -0.3358E-01    0.8681E-02    0.4293E-02    0.2106E-02    0.1045E-02
  (  1, 10,  4) (  1, 15,  6) (  1, 15,  6) (  1, 15,  6) (  1, 15,  6)
     0.5207E-03    0.2912E-03    0.1206E-03
  (  1, 15,  6) (  1, 15,  6) (  1, 15,  6)


 NO OUTPUT CONTROL FOR STRESS PERIOD   11   TIME STEP   3
 
 SOLVING FOR HEAD 
     8 ITERATIONS FOR TIME STEP   4 IN STRESS PERIOD   11

 MAXIMUM HEAD CHANGE FOR EACH ITERATION:

    HEAD CHANGE   HEAD CHANGE   HEAD CHANGE   HEAD CHANGE   HEAD CHANGE
  LAYER,ROW,COL LAYER,ROW,COL LAYER,ROW,COL LAYER,ROW,COL LAYER,ROW,COL
 ----------------------------------------------------------------------
    -0.3593E-01    0.9540E-02    0.4719E-02    0.2315E-02    0.1149E-02
  (  1, 10,  4) (  1, 15,  6) (  1, 15,  6) (  1, 15,  6) (  1, 15,  6)
     0.5726E-03    0.3202E-03    0.1326E-03
  (  1, 15,  6) (  1, 15,  6) (  1, 15,  6)


 NO OUTPUT CONTROL FOR STRESS PERIOD   11   TIME STEP   4
 
 SOLVING FOR HEAD 
     8 ITERATIONS FOR TIME STEP   5 IN STRESS PERIOD   11

 MAXIMUM HEAD CHANGE FOR EACH ITERATION:

    HEAD CHANGE   HEAD CHANGE   HEAD CHANGE   HEAD CHANGE   HEAD CHANGE
  LAYER,ROW,COL LAYER,ROW,COL LAYER,ROW,COL LAYER,ROW,COL LAYER,ROW,COL
 ----------------------------------------------------------------------
    -0.3839E-01    0.1048E-01    0.5188E-02    0.2546E-02    0.1263E-02
  (  1, 10,  4) (  1, 15,  6) (  1, 15,  6) (  1, 15,  6) (  1, 15,  6)
     0.6296E-03    0.2767E-03    0.1307E-03
  (  1, 15,  6) (  1, 15,  6) (  1, 15,  6)


 OUTPUT CONTROL FOR STRESS PERIOD   11   TIME STEP   5
    PRINT BUDGET
    SAVE BUDGET

            WELLS   PERIOD   11   STEP   5
 WELL      1   LAYER   1   ROW     6   COL     4   RATE    -3.00000    
 WELL      2   LAYER   1   ROW     6   COL     5   RATE    -3.00000    
 WELL      3   LAYER   1   ROW     7   COL     4   RATE    -3.00000    
 WELL      4   LAYER   1   ROW     7   COL     5   RATE    -3.00000    
 WELL      5   LAYER   1   ROW     8   COL     4   RATE    -3.00000    
 WELL      6   LAYER   1   ROW     8   COL     5   RATE    -3.00000    
 WELL      7   LAYER   1   ROW     9   COL     4   RATE    -3.00000    
 WELL      8   LAYER   1   ROW     9   COL     5   RATE    -3.00000    
 WELL      9   LAYER   1   ROW    10   COL     4   RATE    -3.00000    
 WELL     10   LAYER   1   ROW    10   COL     5   RATE    -3.00000    

  HEAD DEP BOUNDS   PERIOD   11   STEP   5
 BOUNDARY      1   LAYER   1   ROW    13   COL     1   RATE   -0.263055    
 BOUNDARY      2   LAYER   1   ROW    14   COL     9   RATE    0.209141    
 UBDSV3 SAVING "           GW ET" ON UNIT  61 AT TIME STEP  5, STRESS PERIOD  11
 UBDSV3 SAVING "    UZF INFILTR." ON UNIT  61 AT TIME STEP  5, STRESS PERIOD  11
 UBDSV3 SAVING "    UZF RECHARGE" ON UNIT  61 AT TIME STEP  5, STRESS PERIOD  11
 UBDSV3 SAVING " SURFACE LEAKAGE" ON UNIT  61 AT TIME STEP  5, STRESS PERIOD  11


UNSATURATED ZONE PACKAGE VOLUMETRIC BUDGET FOR  TIME STEP    5 STRESS PERIOD   11
  ------------------------------------------------------------------------------



     CUMULATIVE VOLUMES      L**3       RATES FOR THIS TIME STEP      L**3/T
     ------------------                 ------------------------

           IN:                                      IN:
           ---                                      ---
        INFILTRATION =  1496523610.9837          INFILTRATION =           8.4750

          OUT:                                     OUT:
          ----                                     ----
              UZF ET =  1955840910.2042                UZF ET =          48.6333
        UZF RECHARGE =   341850722.8613          UZF RECHARGE =           9.5378

            IN - OUT =  -801168022.0818              IN - OUT =         -49.6961

          STORAGE:                                 STORAGE:
          --------                                 --------
      STORAGE CHANGE =  -800955278.2934        STORAGE CHANGE =         -49.6961

 PERCENT DISCREPANCY IS DIFFERENCE BETWEEN IN-OUT MINUS CHANGE IN STORAGE
 DIVIDED BY THE AVERAGE OF IN AND OUT TIMES 100

 PERCENT DISCREPANCY =           0.00     PERCENT DISCREPANCY =           0.00









 STREAM LISTING     PERIOD     11   STEP        5

 LAYER ROW COL. STREAM  RCH.  FLOW INTO     FLOW TO   FLOW OUT OF   OVRLND.     DIRECT     STREAM       STREAM     STREAM     STREAM   STREAMBED  STREAMBED
                SEG.NO.  NO.  STRM. RCH.    AQUIFER    STRM. RCH.    RUNOFF     PRECIP       ET          HEAD       DEPTH      WIDTH   CONDCTNC.   GRADIENT

   1    1    1     1     1    2.5000E+01  1.0654E+00   2.3935E+01  0.000E+00  0.000E+00  0.000E+00  1.09422E+03  1.172E+00  1.296E+01  5.830E-01  6.091E-01
   1    2    2     1     2    2.3935E+01  3.0684E+00   2.0866E+01  0.000E+00  0.000E+00  0.000E+00  1.08920E+03  1.140E+00  1.253E+01  8.770E-01  1.166E+00
   1    3    3     1     3    2.0866E+01  2.9021E+00   1.7964E+01  0.000E+00  0.000E+00  0.000E+00  1.08351E+03  1.091E+00  1.182E+01  7.094E-01  1.364E+00
   1    3    4     1     4    1.7964E+01  2.4649E+00   1.5499E+01  0.000E+00  0.000E+00  0.000E+00  1.07845E+03  1.045E+00  1.098E+01  6.094E-01  1.348E+00
   1    4    5     2     1    5.4993E+00  2.6615E+00   2.8377E+00  0.000E+00  0.000E+00  0.000E+00  1.07235E+03  4.122E-01  1.200E+01  7.800E-01  1.137E+00
   1    5    6     2     2    2.8377E+00  1.9525E+00   8.8526E-01  0.000E+00  0.000E+00  0.000E+00  1.06676E+03  2.541E-01  1.200E+01  6.000E-01  1.085E+00
   1    6    6     2     3    8.8526E-01  8.8526E-01   0.0000E+00  0.000E+00  0.000E+00  0.000E+00  1.06183E+03  3.661E-02  1.200E+01  6.000E-01  1.012E+00
   1    7    6     2     4    0.0000E+00  0.0000E+00   0.0000E+00  0.000E+00  0.000E+00  0.000E+00  1.05708E+03  0.000E+00  1.200E+01  6.000E-01  1.000E+00
   1    8    6     2     5    0.0000E+00  0.0000E+00   0.0000E+00  0.000E+00  0.000E+00  0.000E+00  1.05236E+03  0.000E+00  1.200E+01  6.000E-01  1.000E+00
   1    3    5     3     1    1.0000E+01  2.8252E+00   7.1748E+00  0.000E+00  0.000E+00  0.000E+00  1.07555E+03  1.909E+00  9.636E+00  7.227E-01  1.955E+00
   1    3    6     3     2    7.1748E+00  1.8502E+00   5.3247E+00  0.000E+00  0.000E+00  0.000E+00  1.07264E+03  1.727E+00  8.909E+00  6.682E-01  1.384E+00
   1    3    7     3     3    5.3247E+00  8.7927E-01   4.4454E+00  0.000E+00  0.000E+00  0.000E+00  1.06987E+03  1.555E+00  8.218E+00  5.547E-01  7.925E-01
   1    4    8     3     4    4.4454E+00  1.5621E+00   2.8832E+00  0.000E+00  0.000E+00  0.000E+00  1.06682E+03  1.364E+00  7.455E+00  6.709E-01  1.164E+00
   1    5    8     3     5    2.8832E+00  1.5790E+00   1.3043E+00  0.000E+00  0.000E+00  0.000E+00  1.06362E+03  1.164E+00  6.655E+00  4.991E-01  1.582E+00
   1    6    8     3     6    1.3043E+00  5.5980E-01   7.4448E-01  0.000E+00  0.000E+00  0.000E+00  1.06158E+03  1.036E+00  6.145E+00  1.844E-01  1.518E+00
   1    5   10     4     1    1.0000E+01  9.0525E-01   9.0947E+00  0.000E+00  0.000E+00  0.000E+00  1.07835E+03  6.210E-01  1.000E+01  2.500E-01  1.207E+00
   1    5    9     4     2    9.0947E+00  1.7835E+00   7.3113E+00  0.000E+00  0.000E+00  0.000E+00  1.07148E+03  5.670E-01  1.000E+01  5.000E-01  1.189E+00
   1    6    8     4     3    7.3113E+00  1.2257E+00   6.0855E+00  0.000E+00  0.000E+00  0.000E+00  1.06368E+03  5.021E-01  1.000E+01  3.500E-01  1.167E+00
   1    6    8     5     1    6.8300E+00  8.5866E-01   5.9714E+00  0.000E+00  0.000E+00  0.000E+00  1.05857E+03  5.745E-01  1.158E+01  4.630E-01  6.182E-01
   1    7    7     5     2    5.9714E+00  1.7082E+00   4.2632E+00  0.000E+00  0.000E+00  0.000E+00  1.05403E+03  5.312E-01  1.012E+01  5.060E-01  1.125E+00
   1    8    7     5     3    4.2632E+00  1.0223E+00   3.2409E+00  0.000E+00  0.000E+00  0.000E+00  1.04973E+03  4.766E-01  8.401E+00  2.940E-01  1.159E+00
   1    8    6     5     4    3.2409E+00  6.0429E-01   2.6366E+00  0.000E+00  0.000E+00  0.000E+00  1.04669E+03  4.375E-01  7.256E+00  1.814E-01  1.110E+00
   1    9    6     6     1    2.6366E+00  1.9442E+00   6.9244E-01  0.000E+00  0.000E+00  0.000E+00  1.04297E+03  2.403E-01  1.200E+01  6.000E-01  1.080E+00
   1   10    7     6     2    6.9244E-01  6.9244E-01   0.0000E+00  0.000E+00  0.000E+00  0.000E+00  1.03821E+03  3.194E-02  1.200E+01  6.000E-01  1.011E+00
   1   11    7     6     3    0.0000E+00  0.0000E+00   0.0000E+00  0.000E+00  0.000E+00  0.000E+00  1.03364E+03  0.000E+00  1.200E+01  6.000E-01  1.000E+00
   1   12    7     6     4    0.0000E+00  0.0000E+00   0.0000E+00  0.000E+00  0.000E+00  0.000E+00  1.02909E+03  0.000E+00  1.200E+01  6.000E-01  2.662E-01
   1   13    7     6     5    0.0000E+00 -7.9901E-01   7.9901E-01  0.000E+00  0.000E+00  0.000E+00  1.02591E+03  0.000E+00  1.200E+01  2.400E-01 -1.110E+00
   1   14    9     7     1    1.5000E+02  2.0700E+00   1.4793E+02  0.000E+00  0.000E+00  0.000E+00  1.03987E+03  2.286E+00  5.529E+01  5.592E+00  1.234E-01
   1   13    8     7     2    1.4793E+02  3.0381E+00   1.4489E+02  0.000E+00  0.000E+00  0.000E+00  1.03477E+03  2.272E+00  5.522E+01  6.144E+00  1.648E-01
   1   13    7     7     3    1.4489E+02  2.4460E+00   1.4245E+02  0.000E+00  0.000E+00  0.000E+00  1.02968E+03  2.257E+00  5.516E+01  5.578E+00  1.462E-01
   1   13    6     8     1    1.4324E+02  7.0474E-01   1.4254E+02  0.000E+00  0.000E+00  0.000E+00  1.02464E+03  2.766E+00  4.011E+01  4.087E+00  5.748E-02
   1   13    5     8     2    1.4254E+02 -2.0587E+00   1.4460E+02  0.000E+00  0.000E+00  0.000E+00  1.01840E+03  2.771E+00  4.018E+01  4.094E+00 -1.676E-01
   1   13    4     8     3    1.4460E+02 -3.7769E+00   1.4838E+02  0.000E+00  0.000E+00  0.000E+00  1.01217E+03  2.792E+00  4.048E+01  4.125E+00 -3.052E-01
   1   13    3     8     4    1.4838E+02 -4.0035E+00   1.5238E+02  0.000E+00  0.000E+00  0.000E+00  1.00594E+03  2.819E+00  4.088E+01  4.166E+00 -3.203E-01
   1   13    2     8     5    1.5238E+02 -2.0561E+00   1.5444E+02  0.000E+00  0.000E+00  0.000E+00  9.99716E+02  2.841E+00  4.119E+01  4.197E+00 -1.633E-01
   1   13    1     8     6    1.5444E+02 -5.0016E-01   1.5494E+02  0.000E+00  0.000E+00  0.000E+00  9.94724E+02  2.850E+00  4.132E+01  2.526E+00 -6.599E-02



1
  VOLUMETRIC BUDGET FOR ENTIRE MODEL AT END OF TIME STEP  5 IN STRESS PERIOD  11
  ------------------------------------------------------------------------------

     CUMULATIVE VOLUMES      L**3       RATES FOR THIS TIME STEP      L**3/T
     ------------------                 ------------------------

           IN:                                      IN:
           ---                                      ---
             STORAGE =    88342208.0000               STORAGE =          20.4457
       CONSTANT HEAD =           0.0000         CONSTANT HEAD =           0.0000
               WELLS =           0.0000                 WELLS =           0.0000
     HEAD DEP BOUNDS =     5595642.0000       HEAD DEP BOUNDS =           0.2091
        UZF RECHARGE =   341850752.0000          UZF RECHARGE =           9.5378
               GW ET =           0.0000                 GW ET =           0.0000
     SURFACE LEAKAGE =           0.0000       SURFACE LEAKAGE =           0.0000
      STREAM LEAKAGE =  1155938688.0000        STREAM LEAKAGE =          43.2589

            TOTAL IN =  1591727232.0000              TOTAL IN =          73.4515

          OUT:                                     OUT:
          ----                                     ----
             STORAGE =   430417920.0000               STORAGE =          11.2177
       CONSTANT HEAD =           0.0000         CONSTANT HEAD =           0.0000
               WELLS =   330509120.0000                 WELLS =          30.0000
     HEAD DEP BOUNDS =     7058287.0000       HEAD DEP BOUNDS =           0.2631
        UZF RECHARGE =           0.0000          UZF RECHARGE =           0.0000
               GW ET =   462974112.0000                 GW ET =          18.6995
     SURFACE LEAKAGE =           0.0000       SURFACE LEAKAGE =           0.0000
      STREAM LEAKAGE =   359949568.0000        STREAM LEAKAGE =          13.1943

           TOTAL OUT =  1590909056.0000             TOTAL OUT =          73.3745

            IN - OUT =      818176.0000              IN - OUT =       7.7057E-02

 PERCENT DISCREPANCY =           0.05     PERCENT DISCREPANCY =           0.10






          TIME SUMMARY AT END OF TIME STEP   5 IN STRESS PERIOD   11
                    SECONDS     MINUTES      HOURS       DAYS        YEARS
                    -----------------------------------------------------------
   TIME STEP LENGTH 1.21100E+05  2018.3      33.639      1.4016     3.83743E-03
 STRESS PERIOD TIME 5.04972E+05  8416.2      140.27      5.8446     1.60016E-02
         TOTAL TIME 2.67850E+07 4.46416E+05  7440.3      310.01     0.84876    
1
 
 SOLVING FOR HEAD 
     8 ITERATIONS FOR TIME STEP   6 IN STRESS PERIOD   11

 MAXIMUM HEAD CHANGE FOR EACH ITERATION:

    HEAD CHANGE   HEAD CHANGE   HEAD CHANGE   HEAD CHANGE   HEAD CHANGE
  LAYER,ROW,COL LAYER,ROW,COL LAYER,ROW,COL LAYER,ROW,COL LAYER,ROW,COL
 ----------------------------------------------------------------------
    -0.4164E-01    0.9999E-02    0.4818E-02    0.2373E-02    0.1138E-02
  (  1,  9,  4) (  1, 15,  6) (  1, 15,  6) (  1, 15,  6) (  1, 15,  6)
     0.5592E-03    0.2777E-03    0.1384E-03
  (  1, 15,  6) (  1, 15,  6) (  1, 15,  6)


 NO OUTPUT CONTROL FOR STRESS PERIOD   11   TIME STEP   6
 
 SOLVING FOR HEAD 
     8 ITERATIONS FOR TIME STEP   7 IN STRESS PERIOD   11

 MAXIMUM HEAD CHANGE FOR EACH ITERATION:

    HEAD CHANGE   HEAD CHANGE   HEAD CHANGE   HEAD CHANGE   HEAD CHANGE
  LAYER,ROW,COL LAYER,ROW,COL LAYER,ROW,COL LAYER,ROW,COL LAYER,ROW,COL
 ----------------------------------------------------------------------
    -0.4537E-01    0.1058E-01    0.5090E-02    0.2477E-02    0.1225E-02
  (  1,  9,  4) (  1,  7,  1) (  1, 15,  6) (  1, 15,  6) (  1, 15,  6)
     0.6096E-03    0.3042E-03    0.1520E-03
  (  1, 15,  6) (  1, 15,  6) (  1, 15,  6)


 NO OUTPUT CONTROL FOR STRESS PERIOD   11   TIME STEP   7
 
 SOLVING FOR HEAD 
     8 ITERATIONS FOR TIME STEP   8 IN STRESS PERIOD   11

 MAXIMUM HEAD CHANGE FOR EACH ITERATION:

    HEAD CHANGE   HEAD CHANGE   HEAD CHANGE   HEAD CHANGE   HEAD CHANGE
  LAYER,ROW,COL LAYER,ROW,COL LAYER,ROW,COL LAYER,ROW,COL LAYER,ROW,COL
 ----------------------------------------------------------------------
    -0.4936E-01    0.1140E-01    0.5537E-02    0.2661E-02    0.1284E-02
  (  1,  9,  4) (  1, 15,  6) (  1, 15,  6) (  1, 15,  6) (  1, 15,  6)
     0.6577E-03    0.2819E-03    0.1566E-03
  (  1, 15,  6) (  1, 15,  6) (  1, 15,  6)


 NO OUTPUT CONTROL FOR STRESS PERIOD   11   TIME STEP   8
 
 SOLVING FOR HEAD 
     8 ITERATIONS FOR TIME STEP   9 IN STRESS PERIOD   11

 MAXIMUM HEAD CHANGE FOR EACH ITERATION:

    HEAD CHANGE   HEAD CHANGE   HEAD CHANGE   HEAD CHANGE   HEAD CHANGE
  LAYER,ROW,COL LAYER,ROW,COL LAYER,ROW,COL LAYER,ROW,COL LAYER,ROW,COL
 ----------------------------------------------------------------------
    -0.5345E-01    0.1245E-01    0.6016E-02    0.2911E-02    0.1464E-02
  (  1,  9,  4) (  1, 15,  6) (  1, 15,  6) (  1, 15,  6) (  1, 15,  6)
     0.6784E-03    0.3561E-03    0.1691E-03
  (  1, 15,  6) (  1, 15,  6) (  1,  7,  1)


 NO OUTPUT CONTROL FOR STRESS PERIOD   11   TIME STEP   9
 
 SOLVING FOR HEAD 
     8 ITERATIONS FOR TIME STEP  10 IN STRESS PERIOD   11

 MAXIMUM HEAD CHANGE FOR EACH ITERATION:

    HEAD CHANGE   HEAD CHANGE   HEAD CHANGE   HEAD CHANGE   HEAD CHANGE
  LAYER,ROW,COL LAYER,ROW,COL LAYER,ROW,COL LAYER,ROW,COL LAYER,ROW,COL
 ----------------------------------------------------------------------
    -0.5778E-01    0.1314E-01    0.6386E-02    0.3035E-02    0.1516E-02
  (  1,  9,  4) (  1, 15,  6) (  1, 15,  6) (  1, 15,  6) (  1, 15,  6)
     0.7273E-03    0.3273E-03    0.1866E-03
  (  1, 15,  6) (  1, 15,  6) (  1, 15,  6)


 OUTPUT CONTROL FOR STRESS PERIOD   11   TIME STEP  10
    PRINT BUDGET
    SAVE BUDGET

            WELLS   PERIOD   11   STEP  10
 WELL      1   LAYER   1   ROW     6   COL     4   RATE    -3.00000    
 WELL      2   LAYER   1   ROW     6   COL     5   RATE    -3.00000    
 WELL      3   LAYER   1   ROW     7   COL     4   RATE    -3.00000    
 WELL      4   LAYER   1   ROW     7   COL     5   RATE    -3.00000    
 WELL      5   LAYER   1   ROW     8   COL     4   RATE    -3.00000    
 WELL      6   LAYER   1   ROW     8   COL     5   RATE    -3.00000    
 WELL      7   LAYER   1   ROW     9   COL     4   RATE    -3.00000    
 WELL      8   LAYER   1   ROW     9   COL     5   RATE    -3.00000    
 WELL      9   LAYER   1   ROW    10   COL     4   RATE    -3.00000    
 WELL     10   LAYER   1   ROW    10   COL     5   RATE    -3.00000    

  HEAD DEP BOUNDS   PERIOD   11   STEP  10
 BOUNDARY      1   LAYER   1   ROW    13   COL     1   RATE   -0.263020    
 BOUNDARY      2   LAYER   1   ROW    14   COL     9   RATE    0.209184    
 UBDSV3 SAVING "           GW ET" ON UNIT  61 AT TIME STEP 10, STRESS PERIOD  11
 UBDSV3 SAVING "    UZF INFILTR." ON UNIT  61 AT TIME STEP 10, STRESS PERIOD  11
 UBDSV3 SAVING "    UZF RECHARGE" ON UNIT  61 AT TIME STEP 10, STRESS PERIOD  11
 UBDSV3 SAVING " SURFACE LEAKAGE" ON UNIT  61 AT TIME STEP 10, STRESS PERIOD  11


UNSATURATED ZONE PACKAGE VOLUMETRIC BUDGET FOR  TIME STEP   10 STRESS PERIOD   11
  ------------------------------------------------------------------------------



     CUMULATIVE VOLUMES      L**3       RATES FOR THIS TIME STEP      L**3/T
     ------------------                 ------------------------

           IN:                                      IN:
           ---                                      ---
        INFILTRATION =  1503416004.8408          INFILTRATION =           8.4750

          OUT:                                     OUT:
          ----                                     ----
              UZF ET =  1992266219.4282                UZF ET =          42.0448
        UZF RECHARGE =   349258931.7773          UZF RECHARGE =           9.0372

            IN - OUT =  -838109146.3647              IN - OUT =         -42.6071

          STORAGE:                                 STORAGE:
          --------                                 --------
      STORAGE CHANGE =  -837901612.0845        STORAGE CHANGE =         -42.6359

 PERCENT DISCREPANCY IS DIFFERENCE BETWEEN IN-OUT MINUS CHANGE IN STORAGE
 DIVIDED BY THE AVERAGE OF IN AND OUT TIMES 100

 PERCENT DISCREPANCY =           0.00     PERCENT DISCREPANCY =           0.06









 STREAM LISTING     PERIOD     11   STEP       10

 LAYER ROW COL. STREAM  RCH.  FLOW INTO     FLOW TO   FLOW OUT OF   OVRLND.     DIRECT     STREAM       STREAM     STREAM     STREAM   STREAMBED  STREAMBED
                SEG.NO.  NO.  STRM. RCH.    AQUIFER    STRM. RCH.    RUNOFF     PRECIP       ET          HEAD       DEPTH      WIDTH   CONDCTNC.   GRADIENT

   1    1    1     1     1    2.5000E+01  1.0671E+00   2.3933E+01  0.000E+00  0.000E+00  0.000E+00  1.09422E+03  1.172E+00  1.296E+01  5.830E-01  6.101E-01
   1    2    2     1     2    2.3933E+01  3.0696E+00   2.0863E+01  0.000E+00  0.000E+00  0.000E+00  1.08920E+03  1.140E+00  1.253E+01  8.770E-01  1.167E+00
   1    3    3     1     3    2.0863E+01  2.9018E+00   1.7961E+01  0.000E+00  0.000E+00  0.000E+00  1.08351E+03  1.091E+00  1.182E+01  7.094E-01  1.364E+00
   1    3    4     1     4    1.7961E+01  2.4647E+00   1.5497E+01  0.000E+00  0.000E+00  0.000E+00  1.07845E+03  1.045E+00  1.098E+01  6.094E-01  1.348E+00
   1    4    5     2     1    5.4968E+00  2.6614E+00   2.8354E+00  0.000E+00  0.000E+00  0.000E+00  1.07235E+03  4.121E-01  1.200E+01  7.800E-01  1.137E+00
   1    5    6     2     2    2.8354E+00  1.9524E+00   8.8300E-01  0.000E+00  0.000E+00  0.000E+00  1.06676E+03  2.539E-01  1.200E+01  6.000E-01  1.085E+00
   1    6    6     2     3    8.8300E-01  8.8300E-01   0.0000E+00  0.000E+00  0.000E+00  0.000E+00  1.06183E+03  3.655E-02  1.200E+01  6.000E-01  1.012E+00
   1    7    6     2     4    0.0000E+00  0.0000E+00   0.0000E+00  0.000E+00  0.000E+00  0.000E+00  1.05708E+03  0.000E+00  1.200E+01  6.000E-01  1.000E+00
   1    8    6     2     5    0.0000E+00  0.0000E+00   0.0000E+00  0.000E+00  0.000E+00  0.000E+00  1.05236E+03  0.000E+00  1.200E+01  6.000E-01  1.000E+00
   1    3    5     3     1    1.0000E+01  2.8252E+00   7.1748E+00  0.000E+00  0.000E+00  0.000E+00  1.07555E+03  1.909E+00  9.636E+00  7.227E-01  1.955E+00
   1    3    6     3     2    7.1748E+00  1.8665E+00   5.3083E+00  0.000E+00  0.000E+00  0.000E+00  1.07264E+03  1.727E+00  8.909E+00  6.682E-01  1.397E+00
   1    3    7     3     3    5.3083E+00  8.9433E-01   4.4140E+00  0.000E+00  0.000E+00  0.000E+00  1.06987E+03  1.555E+00  8.218E+00  5.547E-01  8.061E-01
   1    4    8     3     4    4.4140E+00  1.5656E+00   2.8484E+00  0.000E+00  0.000E+00  0.000E+00  1.06682E+03  1.364E+00  7.455E+00  6.709E-01  1.167E+00
   1    5    8     3     5    2.8484E+00  1.5790E+00   1.2694E+00  0.000E+00  0.000E+00  0.000E+00  1.06362E+03  1.164E+00  6.655E+00  4.991E-01  1.582E+00
   1    6    8     3     6    1.2694E+00  5.5980E-01   7.0960E-01  0.000E+00  0.000E+00  0.000E+00  1.06158E+03  1.036E+00  6.145E+00  1.844E-01  1.518E+00
   1    5   10     4     1    1.0000E+01  9.0525E-01   9.0947E+00  0.000E+00  0.000E+00  0.000E+00  1.07835E+03  6.210E-01  1.000E+01  2.500E-01  1.207E+00
   1    5    9     4     2    9.0947E+00  1.7835E+00   7.3113E+00  0.000E+00  0.000E+00  0.000E+00  1.07148E+03  5.670E-01  1.000E+01  5.000E-01  1.189E+00
   1    6    8     4     3    7.3113E+00  1.2257E+00   6.0855E+00  0.000E+00  0.000E+00  0.000E+00  1.06368E+03  5.021E-01  1.000E+01  3.500E-01  1.167E+00
   1    6    8     5     1    6.7951E+00  8.4892E-01   5.9462E+00  0.000E+00  0.000E+00  0.000E+00  1.05857E+03  5.736E-01  1.154E+01  4.617E-01  6.129E-01
   1    7    7     5     2    5.9462E+00  1.6875E+00   4.2588E+00  0.000E+00  0.000E+00  0.000E+00  1.05403E+03  5.307E-01  1.010E+01  5.052E-01  1.113E+00
   1    8    7     5     3    4.2588E+00  1.0215E+00   3.2372E+00  0.000E+00  0.000E+00  0.000E+00  1.04973E+03  4.764E-01  8.396E+00  2.939E-01  1.159E+00
   1    8    6     5     4    3.2372E+00  6.0019E-01   2.6370E+00  0.000E+00  0.000E+00  0.000E+00  1.04669E+03  4.374E-01  7.253E+00  1.813E-01  1.103E+00
   1    9    6     6     1    2.6370E+00  1.9442E+00   6.9283E-01  0.000E+00  0.000E+00  0.000E+00  1.04297E+03  2.403E-01  1.200E+01  6.000E-01  1.080E+00
   1   10    7     6     2    6.9283E-01  6.9283E-01   0.0000E+00  0.000E+00  0.000E+00  0.000E+00  1.03821E+03  3.196E-02  1.200E+01  6.000E-01  1.011E+00
   1   11    7     6     3    0.0000E+00  0.0000E+00   0.0000E+00  0.000E+00  0.000E+00  0.000E+00  1.03364E+03  0.000E+00  1.200E+01  6.000E-01  1.000E+00
   1   12    7     6     4    0.0000E+00  0.0000E+00   0.0000E+00  0.000E+00  0.000E+00  0.000E+00  1.02909E+03  0.000E+00  1.200E+01  6.000E-01  2.645E-01
   1   13    7     6     5    0.0000E+00 -7.9931E-01   7.9931E-01  0.000E+00  0.000E+00  0.000E+00  1.02591E+03  0.000E+00  1.200E+01  2.400E-01 -1.110E+00
   1   14    9     7     1    1.5000E+02  2.0762E+00   1.4792E+02  0.000E+00  0.000E+00  0.000E+00  1.03987E+03  2.286E+00  5.529E+01  5.592E+00  1.238E-01
   1   13    8     7     2    1.4792E+02  3.0451E+00   1.4488E+02  0.000E+00  0.000E+00  0.000E+00  1.03477E+03  2.272E+00  5.522E+01  6.144E+00  1.652E-01
   1   13    7     7     3    1.4488E+02  2.4387E+00   1.4244E+02  0.000E+00  0.000E+00  0.000E+00  1.02968E+03  2.257E+00  5.516E+01  5.578E+00  1.457E-01
   1   13    6     8     1    1.4324E+02  7.0676E-01   1.4253E+02  0.000E+00  0.000E+00  0.000E+00  1.02464E+03  2.766E+00  4.011E+01  4.087E+00  5.764E-02
   1   13    5     8     2    1.4253E+02 -2.0633E+00   1.4460E+02  0.000E+00  0.000E+00  0.000E+00  1.01840E+03  2.771E+00  4.018E+01  4.094E+00 -1.680E-01
   1   13    4     8     3    1.4460E+02 -3.7830E+00   1.4838E+02  0.000E+00  0.000E+00  0.000E+00  1.01217E+03  2.792E+00  4.048E+01  4.125E+00 -3.057E-01
   1   13    3     8     4    1.4838E+02 -4.0019E+00   1.5238E+02  0.000E+00  0.000E+00  0.000E+00  1.00594E+03  2.820E+00  4.088E+01  4.166E+00 -3.202E-01
   1   13    2     8     5    1.5238E+02 -2.0496E+00   1.5443E+02  0.000E+00  0.000E+00  0.000E+00  9.99716E+02  2.841E+00  4.119E+01  4.197E+00 -1.628E-01
   1   13    1     8     6    1.5443E+02 -4.9794E-01   1.5493E+02  0.000E+00  0.000E+00  0.000E+00  9.94724E+02  2.849E+00  4.132E+01  2.526E+00 -6.570E-02



1
  VOLUMETRIC BUDGET FOR ENTIRE MODEL AT END OF TIME STEP 10 IN STRESS PERIOD  11
  ------------------------------------------------------------------------------

     CUMULATIVE VOLUMES      L**3       RATES FOR THIS TIME STEP      L**3/T
     ------------------                 ------------------------

           IN:                                      IN:
           ---                                      ---
             STORAGE =   103410568.0000               STORAGE =          17.6058
       CONSTANT HEAD =           0.0000         CONSTANT HEAD =           0.0000
               WELLS =           0.0000                 WELLS =           0.0000
     HEAD DEP BOUNDS =     5765750.5000       HEAD DEP BOUNDS =           0.2092
        UZF RECHARGE =   349258976.0000          UZF RECHARGE =           9.0372
               GW ET =           0.0000                 GW ET =           0.0000
     SURFACE LEAKAGE =           0.0000       SURFACE LEAKAGE =           0.0000
      STREAM LEAKAGE =  1191125376.0000        STREAM LEAKAGE =          43.2668

            TOTAL IN =  1649560704.0000              TOTAL IN =          70.1189

          OUT:                                     OUT:
          ----                                     ----
             STORAGE =   437682528.0000               STORAGE =           7.9264
       CONSTANT HEAD =           0.0000         CONSTANT HEAD =           0.0000
               WELLS =   354906976.0000                 WELLS =          30.0000
     HEAD DEP BOUNDS =     7272202.0000       HEAD DEP BOUNDS =           0.2630
        UZF RECHARGE =           0.0000          UZF RECHARGE =           0.0000
               GW ET =   478196896.0000                 GW ET =          18.7229
     SURFACE LEAKAGE =           0.0000       SURFACE LEAKAGE =           0.0000
      STREAM LEAKAGE =   370679584.0000        STREAM LEAKAGE =          13.1952

           TOTAL OUT =  1648738176.0000             TOTAL OUT =          70.1075

            IN - OUT =      822528.0000              IN - OUT =       1.1452E-02

 PERCENT DISCREPANCY =           0.05     PERCENT DISCREPANCY =           0.02






          TIME SUMMARY AT END OF TIME STEP  10 IN STRESS PERIOD   11
                    SECONDS     MINUTES      HOURS       DAYS        YEARS
                    -----------------------------------------------------------
   TIME STEP LENGTH 1.95033E+05  3250.6      54.176      2.2573     6.18023E-03
 STRESS PERIOD TIME 1.31823E+06  21971.      366.18      15.257     4.17723E-02
         TOTAL TIME 2.75982E+07 4.59970E+05  7666.2      319.42     0.87454    
1
 
 SOLVING FOR HEAD 
     9 ITERATIONS FOR TIME STEP  11 IN STRESS PERIOD   11

 MAXIMUM HEAD CHANGE FOR EACH ITERATION:

    HEAD CHANGE   HEAD CHANGE   HEAD CHANGE   HEAD CHANGE   HEAD CHANGE
  LAYER,ROW,COL LAYER,ROW,COL LAYER,ROW,COL LAYER,ROW,COL LAYER,ROW,COL
 ----------------------------------------------------------------------
    -0.6231E-01    0.1955E-01    0.9633E-02    0.4722E-02    0.2342E-02
  (  1,  9,  4) (  1, 15,  5) (  1, 15,  5) (  1, 15,  5) (  1, 15,  5)
     0.1201E-02    0.5728E-03    0.2478E-03    0.1826E-03
  (  1, 15,  5) (  1, 15,  5) (  1, 15,  5) (  1, 15,  5)


 NO OUTPUT CONTROL FOR STRESS PERIOD   11   TIME STEP  11
 
 SOLVING FOR HEAD 
     9 ITERATIONS FOR TIME STEP  12 IN STRESS PERIOD   11

 MAXIMUM HEAD CHANGE FOR EACH ITERATION:

    HEAD CHANGE   HEAD CHANGE   HEAD CHANGE   HEAD CHANGE   HEAD CHANGE
  LAYER,ROW,COL LAYER,ROW,COL LAYER,ROW,COL LAYER,ROW,COL LAYER,ROW,COL
 ----------------------------------------------------------------------
    -0.6699E-01    0.1959E-01    0.9479E-02    0.4603E-02    0.2238E-02
  (  1,  9,  4) (  1, 15,  5) (  1, 15,  5) (  1, 15,  5) (  1, 15,  5)
     0.1106E-02    0.5139E-03    0.2490E-03    0.1230E-03
  (  1, 15,  5) (  1, 15,  5) (  1, 15,  5) (  1, 15,  5)


 NO OUTPUT CONTROL FOR STRESS PERIOD   11   TIME STEP  12
 
 SOLVING FOR HEAD 
     9 ITERATIONS FOR TIME STEP  13 IN STRESS PERIOD   11

 MAXIMUM HEAD CHANGE FOR EACH ITERATION:

    HEAD CHANGE   HEAD CHANGE   HEAD CHANGE   HEAD CHANGE   HEAD CHANGE
  LAYER,ROW,COL LAYER,ROW,COL LAYER,ROW,COL LAYER,ROW,COL LAYER,ROW,COL
 ----------------------------------------------------------------------
    -0.7196E-01    0.1956E-01    0.9462E-02    0.4547E-02    0.2196E-02
  (  1,  8,  4) (  1, 15,  5) (  1, 15,  5) (  1, 15,  5) (  1, 15,  5)
     0.1083E-02    0.5383E-03    0.2687E-03    0.1340E-03
  (  1, 15,  5) (  1, 15,  5) (  1, 15,  5) (  1, 15,  5)


 NO OUTPUT CONTROL FOR STRESS PERIOD   11   TIME STEP  13
 
 SOLVING FOR HEAD 
     9 ITERATIONS FOR TIME STEP  14 IN STRESS PERIOD   11

 MAXIMUM HEAD CHANGE FOR EACH ITERATION:

    HEAD CHANGE   HEAD CHANGE   HEAD CHANGE   HEAD CHANGE   HEAD CHANGE
  LAYER,ROW,COL LAYER,ROW,COL LAYER,ROW,COL LAYER,ROW,COL LAYER,ROW,COL
 ----------------------------------------------------------------------
    -0.7734E-01    0.2263E-01    0.1092E-01    0.5290E-02    0.2567E-02
  (  1,  8,  4) (  1, 10, 10) (  1, 10, 10) (  1, 10, 10) (  1, 10, 10)
     0.1312E-02    0.6174E-03    0.3010E-03    0.1494E-03
  (  1, 10, 10) (  1, 10, 10) (  1, 10, 10) (  1, 10, 10)


 NO OUTPUT CONTROL FOR STRESS PERIOD   11   TIME STEP  14
 
 SOLVING FOR HEAD 
     9 ITERATIONS FOR TIME STEP  15 IN STRESS PERIOD   11

 MAXIMUM HEAD CHANGE FOR EACH ITERATION:

    HEAD CHANGE   HEAD CHANGE   HEAD CHANGE   HEAD CHANGE   HEAD CHANGE
  LAYER,ROW,COL LAYER,ROW,COL LAYER,ROW,COL LAYER,ROW,COL LAYER,ROW,COL
 ----------------------------------------------------------------------
    -0.8299E-01    0.2386E-01    0.1150E-01    0.5619E-02    0.2685E-02
  (  1,  8,  4) (  1, 10, 10) (  1, 10, 10) (  1, 10, 10) (  1, 10, 10)
     0.1318E-02    0.6538E-03    0.3259E-03    0.1627E-03
  (  1, 10, 10) (  1, 10, 10) (  1, 10, 10) (  1, 10, 10)


 OUTPUT CONTROL FOR STRESS PERIOD   11   TIME STEP  15
    PRINT BUDGET
    PRINT HEAD FOR ALL LAYERS
    SAVE HEAD FOR ALL LAYERS
    SAVE BUDGET

            WELLS   PERIOD   11   STEP  15
 WELL      1   LAYER   1   ROW     6   COL     4   RATE    -3.00000    
 WELL      2   LAYER   1   ROW     6   COL     5   RATE    -3.00000    
 WELL      3   LAYER   1   ROW     7   COL     4   RATE    -3.00000    
 WELL      4   LAYER   1   ROW     7   COL     5   RATE    -3.00000    
 WELL      5   LAYER   1   ROW     8   COL     4   RATE    -3.00000    
 WELL      6   LAYER   1   ROW     8   COL     5   RATE    -3.00000    
 WELL      7   LAYER   1   ROW     9   COL     4   RATE    -3.00000    
 WELL      8   LAYER   1   ROW     9   COL     5   RATE    -3.00000    
 WELL      9   LAYER   1   ROW    10   COL     4   RATE    -3.00000    
 WELL     10   LAYER   1   ROW    10   COL     5   RATE    -3.00000    

  HEAD DEP BOUNDS   PERIOD   11   STEP  15
 BOUNDARY      1   LAYER   1   ROW    13   COL     1   RATE   -0.262933    
 BOUNDARY      2   LAYER   1   ROW    14   COL     9   RATE    0.209251    
 UBDSV3 SAVING "           GW ET" ON UNIT  61 AT TIME STEP 15, STRESS PERIOD  11
 UBDSV3 SAVING "    UZF INFILTR." ON UNIT  61 AT TIME STEP 15, STRESS PERIOD  11
 UBDSV3 SAVING "    UZF RECHARGE" ON UNIT  61 AT TIME STEP 15, STRESS PERIOD  11
 UBDSV3 SAVING " SURFACE LEAKAGE" ON UNIT  61 AT TIME STEP 15, STRESS PERIOD  11


UNSATURATED ZONE PACKAGE VOLUMETRIC BUDGET FOR  TIME STEP   15 STRESS PERIOD   11
  ------------------------------------------------------------------------------



     CUMULATIVE VOLUMES      L**3       RATES FOR THIS TIME STEP      L**3/T
     ------------------                 ------------------------

           IN:                                      IN:
           ---                                      ---
        INFILTRATION =  1514516274.6495          INFILTRATION =           8.4750

          OUT:                                     OUT:
          ----                                     ----
              UZF ET =  2043545946.0720                UZF ET =          37.3083
        UZF RECHARGE =   361727202.7871          UZF RECHARGE =           9.3037

            IN - OUT =  -890756874.2095              IN - OUT =         -38.1370

          STORAGE:                                 STORAGE:
          --------                                 --------
      STORAGE CHANGE =  -890549094.8872        STORAGE CHANGE =         -38.1368

 PERCENT DISCREPANCY IS DIFFERENCE BETWEEN IN-OUT MINUS CHANGE IN STORAGE
 DIVIDED BY THE AVERAGE OF IN AND OUT TIMES 100

 PERCENT DISCREPANCY =           0.00     PERCENT DISCREPANCY =           0.00









 STREAM LISTING     PERIOD     11   STEP       15

 LAYER ROW COL. STREAM  RCH.  FLOW INTO     FLOW TO   FLOW OUT OF   OVRLND.     DIRECT     STREAM       STREAM     STREAM     STREAM   STREAMBED  STREAMBED
                SEG.NO.  NO.  STRM. RCH.    AQUIFER    STRM. RCH.    RUNOFF     PRECIP       ET          HEAD       DEPTH      WIDTH   CONDCTNC.   GRADIENT

   1    1    1     1     1    2.5000E+01  1.0697E+00   2.3930E+01  0.000E+00  0.000E+00  0.000E+00  1.09422E+03  1.172E+00  1.296E+01  5.830E-01  6.116E-01
   1    2    2     1     2    2.3930E+01  3.0713E+00   2.0859E+01  0.000E+00  0.000E+00  0.000E+00  1.08920E+03  1.140E+00  1.253E+01  8.769E-01  1.167E+00
   1    3    3     1     3    2.0859E+01  2.9015E+00   1.7958E+01  0.000E+00  0.000E+00  0.000E+00  1.08351E+03  1.090E+00  1.182E+01  7.093E-01  1.363E+00
   1    3    4     1     4    1.7958E+01  2.4644E+00   1.5493E+01  0.000E+00  0.000E+00  0.000E+00  1.07845E+03  1.045E+00  1.098E+01  6.093E-01  1.348E+00
   1    4    5     2     1    5.4932E+00  2.6613E+00   2.8319E+00  0.000E+00  0.000E+00  0.000E+00  1.07235E+03  4.119E-01  1.200E+01  7.800E-01  1.137E+00
   1    5    6     2     2    2.8319E+00  1.9522E+00   8.7971E-01  0.000E+00  0.000E+00  0.000E+00  1.06676E+03  2.537E-01  1.200E+01  6.000E-01  1.085E+00
   1    6    6     2     3    8.7971E-01  8.7971E-01   0.0000E+00  0.000E+00  0.000E+00  0.000E+00  1.06183E+03  3.647E-02  1.200E+01  6.000E-01  1.012E+00
   1    7    6     2     4    0.0000E+00  0.0000E+00   0.0000E+00  0.000E+00  0.000E+00  0.000E+00  1.05708E+03  0.000E+00  1.200E+01  6.000E-01  1.000E+00
   1    8    6     2     5    0.0000E+00  0.0000E+00   0.0000E+00  0.000E+00  0.000E+00  0.000E+00  1.05236E+03  0.000E+00  1.200E+01  6.000E-01  1.000E+00
   1    3    5     3     1    1.0000E+01  2.8252E+00   7.1748E+00  0.000E+00  0.000E+00  0.000E+00  1.07555E+03  1.909E+00  9.636E+00  7.227E-01  1.955E+00
   1    3    6     3     2    7.1748E+00  1.8987E+00   5.2762E+00  0.000E+00  0.000E+00  0.000E+00  1.07264E+03  1.727E+00  8.909E+00  6.682E-01  1.421E+00
   1    3    7     3     3    5.2762E+00  9.1146E-01   4.3647E+00  0.000E+00  0.000E+00  0.000E+00  1.06987E+03  1.555E+00  8.218E+00  5.547E-01  8.215E-01
   1    4    8     3     4    4.3647E+00  1.5697E+00   2.7950E+00  0.000E+00  0.000E+00  0.000E+00  1.06682E+03  1.364E+00  7.455E+00  6.709E-01  1.170E+00
   1    5    8     3     5    2.7950E+00  1.5790E+00   1.2161E+00  0.000E+00  0.000E+00  0.000E+00  1.06362E+03  1.164E+00  6.655E+00  4.991E-01  1.582E+00
   1    6    8     3     6    1.2161E+00  5.5980E-01   6.5626E-01  0.000E+00  0.000E+00  0.000E+00  1.06158E+03  1.036E+00  6.145E+00  1.844E-01  1.518E+00
   1    5   10     4     1    1.0000E+01  9.0525E-01   9.0947E+00  0.000E+00  0.000E+00  0.000E+00  1.07835E+03  6.210E-01  1.000E+01  2.500E-01  1.207E+00
   1    5    9     4     2    9.0947E+00  1.7835E+00   7.3113E+00  0.000E+00  0.000E+00  0.000E+00  1.07148E+03  5.670E-01  1.000E+01  5.000E-01  1.189E+00
   1    6    8     4     3    7.3113E+00  1.2257E+00   6.0855E+00  0.000E+00  0.000E+00  0.000E+00  1.06368E+03  5.021E-01  1.000E+01  3.500E-01  1.167E+00
   1    6    8     5     1    6.7418E+00  8.3371E-01   5.9081E+00  0.000E+00  0.000E+00  0.000E+00  1.05857E+03  5.721E-01  1.149E+01  4.597E-01  6.045E-01
   1    7    7     5     2    5.9081E+00  1.6628E+00   4.2453E+00  0.000E+00  0.000E+00  0.000E+00  1.05403E+03  5.298E-01  1.007E+01  5.036E-01  1.101E+00
   1    8    7     5     3    4.2453E+00  1.0194E+00   3.2259E+00  0.000E+00  0.000E+00  0.000E+00  1.04973E+03  4.758E-01  8.379E+00  2.933E-01  1.159E+00
   1    8    6     5     4    3.2259E+00  6.0524E-01   2.6207E+00  0.000E+00  0.000E+00  0.000E+00  1.04669E+03  4.367E-01  7.233E+00  1.808E-01  1.116E+00
   1    9    6     6     1    2.6207E+00  1.9434E+00   6.7730E-01  0.000E+00  0.000E+00  0.000E+00  1.04297E+03  2.390E-01  1.200E+01  6.000E-01  1.080E+00
   1   10    7     6     2    6.7730E-01  6.7730E-01   0.0000E+00  0.000E+00  0.000E+00  0.000E+00  1.03821E+03  3.152E-02  1.200E+01  6.000E-01  1.011E+00
   1   11    7     6     3    0.0000E+00  0.0000E+00   0.0000E+00  0.000E+00  0.000E+00  0.000E+00  1.03364E+03  0.000E+00  1.200E+01  6.000E-01  9.941E-01
   1   12    7     6     4    0.0000E+00  0.0000E+00   0.0000E+00  0.000E+00  0.000E+00  0.000E+00  1.02909E+03  0.000E+00  1.200E+01  6.000E-01  2.615E-01
   1   13    7     6     5    0.0000E+00 -7.9962E-01   7.9962E-01  0.000E+00  0.000E+00  0.000E+00  1.02591E+03  0.000E+00  1.200E+01  2.400E-01 -1.111E+00
   1   14    9     7     1    1.5000E+02  2.0859E+00   1.4791E+02  0.000E+00  0.000E+00  0.000E+00  1.03987E+03  2.286E+00  5.529E+01  5.592E+00  1.243E-01
   1   13    8     7     2    1.4791E+02  3.0543E+00   1.4486E+02  0.000E+00  0.000E+00  0.000E+00  1.03477E+03  2.272E+00  5.522E+01  6.144E+00  1.657E-01
   1   13    7     7     3    1.4486E+02  2.4310E+00   1.4243E+02  0.000E+00  0.000E+00  0.000E+00  1.02968E+03  2.257E+00  5.516E+01  5.578E+00  1.453E-01
   1   13    6     8     1    1.4323E+02  7.0805E-01   1.4252E+02  0.000E+00  0.000E+00  0.000E+00  1.02464E+03  2.766E+00  4.011E+01  4.087E+00  5.775E-02
   1   13    5     8     2    1.4252E+02 -2.0688E+00   1.4459E+02  0.000E+00  0.000E+00  0.000E+00  1.01840E+03  2.771E+00  4.018E+01  4.094E+00 -1.684E-01
   1   13    4     8     3    1.4459E+02 -3.7745E+00   1.4836E+02  0.000E+00  0.000E+00  0.000E+00  1.01217E+03  2.792E+00  4.048E+01  4.125E+00 -3.050E-01
   1   13    3     8     4    1.4836E+02 -4.0010E+00   1.5236E+02  0.000E+00  0.000E+00  0.000E+00  1.00594E+03  2.819E+00  4.088E+01  4.166E+00 -3.201E-01
   1   13    2     8     5    1.5236E+02 -2.0415E+00   1.5441E+02  0.000E+00  0.000E+00  0.000E+00  9.99716E+02  2.841E+00  4.119E+01  4.197E+00 -1.621E-01
   1   13    1     8     6    1.5441E+02 -4.9256E-01   1.5490E+02  0.000E+00  0.000E+00  0.000E+00  9.94724E+02  2.849E+00  4.131E+01  2.526E+00 -6.500E-02



1
              HEAD IN LAYER   1 AT END OF TIME STEP  15 IN STRESS PERIOD   11
  ---------------------------------------------------------------------------

           1       2       3       4       5       6       7       8       9      10
 ...................................................................................
   1  1092.39 1088.63 6999.00 6999.00 6999.00 6999.00 6999.00 6999.00 6999.00 6999.00
   2  1089.03 1085.70 1079.28 6999.00 6999.00 1073.77 1072.65 1070.93 6999.00 6999.00
   3  6999.00 1077.37 1074.51 1070.39 1070.97 1069.79 1068.23 1067.93 6999.00 6999.00
   4  1069.40 1068.67 1067.03 1063.64 1062.48 1061.18 1061.76 1064.48 1063.90 6999.00
   5  1065.16 1061.72 1059.30 1057.45 1057.16 1057.72 1057.54 1059.56 1062.99 1065.38
   6  1060.41 1055.85 1053.02 1051.01 1051.30 1053.22 1054.46 1056.76 1059.52 1063.68
   7  1056.55 1050.20 1047.32 1045.52 1046.12 1048.37 1050.73 1053.04 1054.32 6999.00
   8  6999.00 1042.80 1041.32 1040.04 1040.88 1043.34 1045.12 1047.46 1049.27 6999.00
   9  6999.00 1035.82 1035.28 1034.59 1035.75 1038.39 1039.28 1041.01 1043.84 6999.00
  10  6999.00 1028.70 1029.12 1029.48 1030.96 1033.27 1034.56 1036.44 1040.12 1044.64
  11  6999.00 1019.80 1021.58 1025.09 1027.09 1029.19 1030.65 1032.93 1036.37 6999.00
  12  1001.20 1008.87 1014.15 1019.06 1022.70 1025.92 1028.31 1031.03 1034.89 6999.00
  13   994.92 1000.20 1006.90 1013.08 1018.90 1024.47 1029.24 1034.27 1036.39 6999.00
  14  6999.00 1005.81 1011.40 1016.13 1021.15 1025.87 1030.14 1035.23 1039.49 6999.00
  15  6999.00 6999.00 1018.84 1021.83 1026.00 1029.35 6999.00 6999.00 6999.00 6999.00

 HEAD WILL BE SAVED ON UNIT   58 AT END OF TIME STEP  15, STRESS PERIOD   11
1
  VOLUMETRIC BUDGET FOR ENTIRE MODEL AT END OF TIME STEP 15 IN STRESS PERIOD  11
  ------------------------------------------------------------------------------

     CUMULATIVE VOLUMES      L**3       RATES FOR THIS TIME STEP      L**3/T
     ------------------                 ------------------------

           IN:                                      IN:
           ---                                      ---
             STORAGE =   125321112.0000               STORAGE =          16.3511
       CONSTANT HEAD =           0.0000         CONSTANT HEAD =           0.0000
               WELLS =           0.0000                 WELLS =           0.0000
     HEAD DEP BOUNDS =     6039778.5000       HEAD DEP BOUNDS =           0.2093
        UZF RECHARGE =   361727232.0000          UZF RECHARGE =           9.3037
               GW ET =           0.0000                 GW ET =           0.0000
     SURFACE LEAKAGE =           0.0000       SURFACE LEAKAGE =           0.0000
      STREAM LEAKAGE =  1247798784.0000        STREAM LEAKAGE =          43.2792

            TOTAL IN =  1740886912.0000              TOTAL IN =          69.1432

          OUT:                                     OUT:
          ----                                     ----
             STORAGE =   447470304.0000               STORAGE =           6.7813
       CONSTANT HEAD =           0.0000         CONSTANT HEAD =           0.0000
               WELLS =   394199968.0000                 WELLS =          30.0000
     HEAD DEP BOUNDS =     7616645.5000       HEAD DEP BOUNDS =           0.2629
        UZF RECHARGE =           0.0000          UZF RECHARGE =           0.0000
               GW ET =   502810688.0000                 GW ET =          18.9085
     SURFACE LEAKAGE =           0.0000       SURFACE LEAKAGE =           0.0000
      STREAM LEAKAGE =   387955200.0000        STREAM LEAKAGE =          13.1780

           TOTAL OUT =  1740052864.0000             TOTAL OUT =          69.1308

            IN - OUT =      834048.0000              IN - OUT =       1.2466E-02

 PERCENT DISCREPANCY =           0.05     PERCENT DISCREPANCY =           0.02






          TIME SUMMARY AT END OF TIME STEP  15 IN STRESS PERIOD   11
                    SECONDS     MINUTES      HOURS       DAYS        YEARS
                    -----------------------------------------------------------
   TIME STEP LENGTH 3.14103E+05  5235.0      87.251      3.6354     9.95332E-03
 STRESS PERIOD TIME 2.62800E+06  43800.      730.00      30.417     8.32763E-02
         TOTAL TIME 2.89080E+07 4.81800E+05  8030.0      334.58     0.91604    
1
1
                            STRESS PERIOD NO.   12, LENGTH =   2628000.    
                            -----------------------------------------------

                              NUMBER OF TIME STEPS =    15

                               MULTIPLIER FOR DELT =     1.100

                            INITIAL TIME STEP SIZE =   82713.07    

      0 WELLS

 REUSING NON-PARAMETER GHB CELLS FROM LAST STRESS PERIOD

      2 GHB CELLS

 REUSING STREAM SEGMENT DATA FROM LAST STRESS PERIOD



            AREAL INFILTRATION RATE
 READING ON UNIT   19 WITH FORMAT: (10F4.0)            

            1           2           3           4           5           6           7           8           9          10
 ........................................................................................................................
   1   1.0000E-09  2.0000E-09   0.000       0.000       0.000       0.000       0.000       0.000       0.000       0.000    
   2   2.0000E-09  1.0000E-09  2.0000E-09   0.000       0.000      8.0000E-09  8.0000E-09  5.0000E-09   0.000       0.000    
   3    0.000      5.0000E-09  1.0000E-09  1.0000E-09  8.0000E-09  8.0000E-09  5.0000E-09  5.0000E-09   0.000       0.000    
   4   8.0000E-09  5.0000E-09  1.0000E-09  1.0000E-09  1.0000E-09  1.0000E-09  1.0000E-09  1.0000E-09  2.0000E-09   0.000    
   5   8.0000E-09  5.0000E-09  1.0000E-09  1.0000E-09  1.0000E-09  1.0000E-09  1.0000E-09  1.0000E-09  1.0000E-09  1.0000E-09
   6   8.0000E-09  5.0000E-09  5.0000E-09  2.0000E-09  2.0000E-09  1.0000E-09  1.0000E-09  1.0000E-09  1.0000E-09  5.0000E-09
   7   8.0000E-09  5.0000E-09  5.0000E-09  2.0000E-09  2.0000E-09  1.0000E-09  1.0000E-09  2.0000E-09  2.0000E-09   0.000    
   8    0.000      5.0000E-09  5.0000E-09  2.0000E-09  2.0000E-09  1.0000E-09  1.0000E-09  2.0000E-09  5.0000E-09   0.000    
   9    0.000      5.0000E-09  5.0000E-09  2.0000E-09  2.0000E-09  1.0000E-09  1.0000E-09  2.0000E-09  5.0000E-09   0.000    
  10    0.000      5.0000E-09  5.0000E-09  2.0000E-09  2.0000E-09  1.0000E-09  1.0000E-09  2.0000E-09  5.0000E-09  8.0000E-09
  11    0.000      1.0000E-09  1.0000E-09  1.0000E-09  1.0000E-09  1.0000E-09  1.0000E-09  2.0000E-09  5.0000E-09   0.000    
  12   1.0000E-09  1.0000E-09  1.0000E-09  1.0000E-09  1.0000E-09  1.0000E-09  1.0000E-09  1.0000E-09  2.0000E-09   0.000    
  13   1.0000E-09  1.0000E-09  2.0000E-09  2.0000E-09  2.0000E-09  2.0000E-09  2.0000E-09  1.0000E-09  1.0000E-09   0.000    
  14    0.000      2.0000E-09  5.0000E-09  5.0000E-09  5.0000E-09  5.0000E-09  5.0000E-09  2.0000E-09  1.0000E-09   0.000    
  15    0.000       0.000      8.0000E-09  8.0000E-09  8.0000E-09  8.0000E-09   0.000       0.000       0.000       0.000    

USING ET RATE FROM PREVIOUS STRESS PERIOD. CURRENT PERIOD IS:      12

 USING ET EXTINCTION DEPTH FROM PREVIOUS STRESS PERIOD. CURRENT PERIOD IS:      12

 USING EXTINCTION WATER CONTENT FROM PREVIOUS STRESS PERIOD. CURRENT PERIOD IS:      12
 
 SOLVING FOR HEAD 

     7 ITERATIONS FOR TIME STEP   1 IN STRESS PERIOD   12

 MAXIMUM HEAD CHANGE FOR EACH ITERATION:

    HEAD CHANGE   HEAD CHANGE   HEAD CHANGE   HEAD CHANGE   HEAD CHANGE
  LAYER,ROW,COL LAYER,ROW,COL LAYER,ROW,COL LAYER,ROW,COL LAYER,ROW,COL
 ----------------------------------------------------------------------
     0.2538E-01    0.6235E-02    0.3054E-02    0.1488E-02    0.7105E-03
  (  1, 10,  5) (  1, 10, 10) (  1, 10, 10) (  1, 10, 10) (  1, 10, 10)
     0.3486E-03    0.1729E-03
  (  1, 10, 10) (  1, 10, 10)


 NO OUTPUT CONTROL FOR STRESS PERIOD   12   TIME STEP   1
 
 SOLVING FOR HEAD 
     7 ITERATIONS FOR TIME STEP   2 IN STRESS PERIOD   12

 MAXIMUM HEAD CHANGE FOR EACH ITERATION:

    HEAD CHANGE   HEAD CHANGE   HEAD CHANGE   HEAD CHANGE   HEAD CHANGE
  LAYER,ROW,COL LAYER,ROW,COL LAYER,ROW,COL LAYER,ROW,COL LAYER,ROW,COL
 ----------------------------------------------------------------------
     0.2682E-01    0.6845E-02    0.3299E-02    0.1625E-02    0.7791E-03
  (  1, 10,  5) (  1, 10, 10) (  1, 10, 10) (  1, 10, 10) (  1, 10, 10)
     0.3829E-03    0.1901E-03
  (  1, 10, 10) (  1, 10, 10)


 NO OUTPUT CONTROL FOR STRESS PERIOD   12   TIME STEP   2
 
 SOLVING FOR HEAD 
     7 ITERATIONS FOR TIME STEP   3 IN STRESS PERIOD   12

 MAXIMUM HEAD CHANGE FOR EACH ITERATION:

    HEAD CHANGE   HEAD CHANGE   HEAD CHANGE   HEAD CHANGE   HEAD CHANGE
  LAYER,ROW,COL LAYER,ROW,COL LAYER,ROW,COL LAYER,ROW,COL LAYER,ROW,COL
 ----------------------------------------------------------------------
     0.2816E-01    0.7146E-02    0.3490E-02    0.1697E-02    0.8388E-03
  (  1, 10,  5) (  1, 10, 10) (  1, 10, 10) (  1, 10, 10) (  1, 10, 10)
     0.3550E-03    0.1959E-03
  (  1, 10, 10) (  1, 10, 10)


 NO OUTPUT CONTROL FOR STRESS PERIOD   12   TIME STEP   3
 
 SOLVING FOR HEAD 
     8 ITERATIONS FOR TIME STEP   4 IN STRESS PERIOD   12

 MAXIMUM HEAD CHANGE FOR EACH ITERATION:

    HEAD CHANGE   HEAD CHANGE   HEAD CHANGE   HEAD CHANGE   HEAD CHANGE
  LAYER,ROW,COL LAYER,ROW,COL LAYER,ROW,COL LAYER,ROW,COL LAYER,ROW,COL
 ----------------------------------------------------------------------
     0.2968E-01    0.7858E-02    0.3838E-02    0.1866E-02    0.8538E-03
  (  1, 10,  5) (  1, 10, 10) (  1, 10, 10) (  1, 10, 10) (  1, 10, 10)
     0.4454E-03    0.2264E-03    0.1139E-03
  (  1, 10, 10) (  1, 10, 10) (  1, 10, 10)


 NO OUTPUT CONTROL FOR STRESS PERIOD   12   TIME STEP   4
 
 SOLVING FOR HEAD 
     8 ITERATIONS FOR TIME STEP   5 IN STRESS PERIOD   12

 MAXIMUM HEAD CHANGE FOR EACH ITERATION:

    HEAD CHANGE   HEAD CHANGE   HEAD CHANGE   HEAD CHANGE   HEAD CHANGE
  LAYER,ROW,COL LAYER,ROW,COL LAYER,ROW,COL LAYER,ROW,COL LAYER,ROW,COL
 ----------------------------------------------------------------------
     0.3110E-01    0.8635E-02    0.4219E-02    0.2052E-02    0.9390E-03
  (  1, 10,  5) (  1, 10, 10) (  1, 10, 10) (  1, 10, 10) (  1, 10, 10)
     0.4898E-03    0.2490E-03    0.1253E-03
  (  1, 10, 10) (  1, 10, 10) (  1, 10, 10)


 OUTPUT CONTROL FOR STRESS PERIOD   12   TIME STEP   5
    PRINT BUDGET
    SAVE BUDGET

  HEAD DEP BOUNDS   PERIOD   12   STEP   5
 BOUNDARY      1   LAYER   1   ROW    13   COL     1   RATE   -0.262843    
 BOUNDARY      2   LAYER   1   ROW    14   COL     9   RATE    0.209312    
 UBDSV3 SAVING "           GW ET" ON UNIT  61 AT TIME STEP  5, STRESS PERIOD  12
 UBDSV3 SAVING "    UZF INFILTR." ON UNIT  61 AT TIME STEP  5, STRESS PERIOD  12
 UBDSV3 SAVING "    UZF RECHARGE" ON UNIT  61 AT TIME STEP  5, STRESS PERIOD  12
 UBDSV3 SAVING " SURFACE LEAKAGE" ON UNIT  61 AT TIME STEP  5, STRESS PERIOD  12


UNSATURATED ZONE PACKAGE VOLUMETRIC BUDGET FOR  TIME STEP    5 STRESS PERIOD   12
  ------------------------------------------------------------------------------



     CUMULATIVE VOLUMES      L**3       RATES FOR THIS TIME STEP      L**3/T
     ------------------                 ------------------------

           IN:                                      IN:
           ---                                      ---
        INFILTRATION =  1518795908.7557          INFILTRATION =           8.4750

          OUT:                                     OUT:
          ----                                     ----
              UZF ET =  2061851762.0132                UZF ET =          35.8966
        UZF RECHARGE =   366287021.3016          UZF RECHARGE =           8.8280

            IN - OUT =  -909342874.5590              IN - OUT =         -36.2496

          STORAGE:                                 STORAGE:
          --------                                 --------
      STORAGE CHANGE =  -909135094.7259        STORAGE CHANGE =         -36.2496

 PERCENT DISCREPANCY IS DIFFERENCE BETWEEN IN-OUT MINUS CHANGE IN STORAGE
 DIVIDED BY THE AVERAGE OF IN AND OUT TIMES 100

 PERCENT DISCREPANCY =           0.00     PERCENT DISCREPANCY =           0.00









 STREAM LISTING     PERIOD     12   STEP        5

 LAYER ROW COL. STREAM  RCH.  FLOW INTO     FLOW TO   FLOW OUT OF   OVRLND.     DIRECT     STREAM       STREAM     STREAM     STREAM   STREAMBED  STREAMBED
                SEG.NO.  NO.  STRM. RCH.    AQUIFER    STRM. RCH.    RUNOFF     PRECIP       ET          HEAD       DEPTH      WIDTH   CONDCTNC.   GRADIENT

   1    1    1     1     1    2.5000E+01  1.0709E+00   2.3929E+01  0.000E+00  0.000E+00  0.000E+00  1.09422E+03  1.172E+00  1.296E+01  5.830E-01  6.123E-01
   1    2    2     1     2    2.3929E+01  3.0728E+00   2.0856E+01  0.000E+00  0.000E+00  0.000E+00  1.08920E+03  1.140E+00  1.253E+01  8.769E-01  1.168E+00
   1    3    3     1     3    2.0856E+01  2.9012E+00   1.7955E+01  0.000E+00  0.000E+00  0.000E+00  1.08351E+03  1.090E+00  1.182E+01  7.093E-01  1.363E+00
   1    3    4     1     4    1.7955E+01  2.4642E+00   1.5491E+01  0.000E+00  0.000E+00  0.000E+00  1.07845E+03  1.044E+00  1.098E+01  6.093E-01  1.348E+00
   1    4    5     2     1    5.4909E+00  2.6612E+00   2.8297E+00  0.000E+00  0.000E+00  0.000E+00  1.07235E+03  4.117E-01  1.200E+01  7.800E-01  1.137E+00
   1    5    6     2     2    2.8297E+00  1.9521E+00   8.7765E-01  0.000E+00  0.000E+00  0.000E+00  1.06676E+03  2.535E-01  1.200E+01  6.000E-01  1.084E+00
   1    6    6     2     3    8.7765E-01  8.7765E-01   0.0000E+00  0.000E+00  0.000E+00  0.000E+00  1.06183E+03  3.642E-02  1.200E+01  6.000E-01  1.012E+00
   1    7    6     2     4    0.0000E+00  0.0000E+00   0.0000E+00  0.000E+00  0.000E+00  0.000E+00  1.05708E+03  0.000E+00  1.200E+01  6.000E-01  1.000E+00
   1    8    6     2     5    0.0000E+00  0.0000E+00   0.0000E+00  0.000E+00  0.000E+00  0.000E+00  1.05236E+03  0.000E+00  1.200E+01  6.000E-01  1.000E+00
   1    3    5     3     1    1.0000E+01  2.8252E+00   7.1748E+00  0.000E+00  0.000E+00  0.000E+00  1.07555E+03  1.909E+00  9.636E+00  7.227E-01  1.955E+00
   1    3    6     3     2    7.1748E+00  1.9106E+00   5.2642E+00  0.000E+00  0.000E+00  0.000E+00  1.07264E+03  1.727E+00  8.909E+00  6.682E-01  1.430E+00
   1    3    7     3     3    5.2642E+00  9.1706E-01   4.3472E+00  0.000E+00  0.000E+00  0.000E+00  1.06987E+03  1.555E+00  8.218E+00  5.547E-01  8.266E-01
   1    4    8     3     4    4.3472E+00  1.5720E+00   2.7752E+00  0.000E+00  0.000E+00  0.000E+00  1.06682E+03  1.364E+00  7.455E+00  6.709E-01  1.172E+00
   1    5    8     3     5    2.7752E+00  1.5790E+00   1.1962E+00  0.000E+00  0.000E+00  0.000E+00  1.06362E+03  1.164E+00  6.655E+00  4.991E-01  1.582E+00
   1    6    8     3     6    1.1962E+00  5.5980E-01   6.3640E-01  0.000E+00  0.000E+00  0.000E+00  1.06158E+03  1.036E+00  6.145E+00  1.844E-01  1.518E+00
   1    5   10     4     1    1.0000E+01  9.0525E-01   9.0947E+00  0.000E+00  0.000E+00  0.000E+00  1.07835E+03  6.210E-01  1.000E+01  2.500E-01  1.207E+00
   1    5    9     4     2    9.0947E+00  1.7835E+00   7.3113E+00  0.000E+00  0.000E+00  0.000E+00  1.07148E+03  5.670E-01  1.000E+01  5.000E-01  1.189E+00
   1    6    8     4     3    7.3113E+00  1.2257E+00   6.0855E+00  0.000E+00  0.000E+00  0.000E+00  1.06368E+03  5.021E-01  1.000E+01  3.500E-01  1.167E+00
   1    6    8     5     1    6.7219E+00  8.2875E-01   5.8932E+00  0.000E+00  0.000E+00  0.000E+00  1.05857E+03  5.716E-01  1.147E+01  4.589E-01  6.019E-01
   1    7    7     5     2    5.8932E+00  1.6556E+00   4.2376E+00  0.000E+00  0.000E+00  0.000E+00  1.05403E+03  5.293E-01  1.006E+01  5.029E-01  1.097E+00
   1    8    7     5     3    4.2376E+00  1.0181E+00   3.2195E+00  0.000E+00  0.000E+00  0.000E+00  1.04973E+03  4.755E-01  8.370E+00  2.929E-01  1.159E+00
   1    8    6     5     4    3.2195E+00  6.0651E-01   2.6130E+00  0.000E+00  0.000E+00  0.000E+00  1.04669E+03  4.363E-01  7.222E+00  1.806E-01  1.120E+00
   1    9    6     6     1    2.6130E+00  1.9430E+00   6.6999E-01  0.000E+00  0.000E+00  0.000E+00  1.04297E+03  2.383E-01  1.200E+01  6.000E-01  1.079E+00
   1   10    7     6     2    6.6999E-01  6.6999E-01   0.0000E+00  0.000E+00  0.000E+00  0.000E+00  1.03821E+03  3.132E-02  1.200E+01  6.000E-01  1.010E+00
   1   11    7     6     3    0.0000E+00  0.0000E+00   0.0000E+00  0.000E+00  0.000E+00  0.000E+00  1.03364E+03  0.000E+00  1.200E+01  6.000E-01  9.915E-01
   1   12    7     6     4    0.0000E+00  0.0000E+00   0.0000E+00  0.000E+00  0.000E+00  0.000E+00  1.02909E+03  0.000E+00  1.200E+01  6.000E-01  2.609E-01
   1   13    7     6     5    0.0000E+00 -7.9947E-01   7.9947E-01  0.000E+00  0.000E+00  0.000E+00  1.02591E+03  0.000E+00  1.200E+01  2.400E-01 -1.110E+00
   1   14    9     7     1    1.5000E+02  2.0947E+00   1.4791E+02  0.000E+00  0.000E+00  0.000E+00  1.03987E+03  2.286E+00  5.529E+01  5.592E+00  1.249E-01
   1   13    8     7     2    1.4791E+02  3.0641E+00   1.4484E+02  0.000E+00  0.000E+00  0.000E+00  1.03477E+03  2.272E+00  5.522E+01  6.144E+00  1.662E-01
   1   13    7     7     3    1.4484E+02  2.4339E+00   1.4241E+02  0.000E+00  0.000E+00  0.000E+00  1.02968E+03  2.257E+00  5.516E+01  5.578E+00  1.454E-01
   1   13    6     8     1    1.4321E+02  7.0784E-01   1.4250E+02  0.000E+00  0.000E+00  0.000E+00  1.02464E+03  2.766E+00  4.010E+01  4.087E+00  5.774E-02
   1   13    5     8     2    1.4250E+02 -2.0645E+00   1.4456E+02  0.000E+00  0.000E+00  0.000E+00  1.01840E+03  2.771E+00  4.017E+01  4.094E+00 -1.681E-01
   1   13    4     8     3    1.4456E+02 -3.7686E+00   1.4833E+02  0.000E+00  0.000E+00  0.000E+00  1.01217E+03  2.792E+00  4.048E+01  4.125E+00 -3.045E-01
   1   13    3     8     4    1.4833E+02 -3.9962E+00   1.5233E+02  0.000E+00  0.000E+00  0.000E+00  1.00594E+03  2.819E+00  4.088E+01  4.166E+00 -3.198E-01
   1   13    2     8     5    1.5233E+02 -2.0343E+00   1.5436E+02  0.000E+00  0.000E+00  0.000E+00  9.99715E+02  2.840E+00  4.118E+01  4.197E+00 -1.616E-01
   1   13    1     8     6    1.5436E+02 -4.8737E-01   1.5485E+02  0.000E+00  0.000E+00  0.000E+00  9.94724E+02  2.849E+00  4.131E+01  2.526E+00 -6.432E-02



1
  VOLUMETRIC BUDGET FOR ENTIRE MODEL AT END OF TIME STEP  5 IN STRESS PERIOD  12
  ------------------------------------------------------------------------------

     CUMULATIVE VOLUMES      L**3       RATES FOR THIS TIME STEP      L**3/T
     ------------------                 ------------------------

           IN:                                      IN:
           ---                                      ---
             STORAGE =   126263360.0000               STORAGE =           1.2380
       CONSTANT HEAD =           0.0000         CONSTANT HEAD =           0.0000
               WELLS =           0.0000                 WELLS =           0.0000
     HEAD DEP BOUNDS =     6145461.5000       HEAD DEP BOUNDS =           0.2093
        UZF RECHARGE =   366287072.0000          UZF RECHARGE =           8.8280
               GW ET =           0.0000                 GW ET =           0.0000
     SURFACE LEAKAGE =           0.0000       SURFACE LEAKAGE =           0.0000
      STREAM LEAKAGE =  1269659904.0000        STREAM LEAKAGE =          43.3005

            TOTAL IN =  1768355840.0000              TOTAL IN =          53.5759

          OUT:                                     OUT:
          ----                                     ----
             STORAGE =   458502464.0000               STORAGE =          20.9727
       CONSTANT HEAD =           0.0000         CONSTANT HEAD =           0.0000
               WELLS =   394199968.0000                 WELLS =           0.0000
     HEAD DEP BOUNDS =     7749393.5000       HEAD DEP BOUNDS =           0.2628
        UZF RECHARGE =           0.0000          UZF RECHARGE =           0.0000
               GW ET =   512434080.0000                 GW ET =          19.1285
     SURFACE LEAKAGE =           0.0000       SURFACE LEAKAGE =           0.0000
      STREAM LEAKAGE =   394601632.0000        STREAM LEAKAGE =          13.1504

           TOTAL OUT =  1767487488.0000             TOTAL OUT =          53.5144

            IN - OUT =      868352.0000              IN - OUT =       6.1420E-02

 PERCENT DISCREPANCY =           0.05     PERCENT DISCREPANCY =           0.11






          TIME SUMMARY AT END OF TIME STEP   5 IN STRESS PERIOD   12
                    SECONDS     MINUTES      HOURS       DAYS        YEARS
                    -----------------------------------------------------------
   TIME STEP LENGTH 1.21100E+05  2018.3      33.639      1.4016     3.83743E-03
 STRESS PERIOD TIME 5.04972E+05  8416.2      140.27      5.8446     1.60016E-02
         TOTAL TIME 2.94130E+07 4.90216E+05  8170.3      340.43     0.93204    
1
 
 SOLVING FOR HEAD 
     8 ITERATIONS FOR TIME STEP   6 IN STRESS PERIOD   12

 MAXIMUM HEAD CHANGE FOR EACH ITERATION:

    HEAD CHANGE   HEAD CHANGE   HEAD CHANGE   HEAD CHANGE   HEAD CHANGE
  LAYER,ROW,COL LAYER,ROW,COL LAYER,ROW,COL LAYER,ROW,COL LAYER,ROW,COL
 ----------------------------------------------------------------------
     0.3252E-01    0.9095E-02    0.4394E-02    0.2124E-02    0.1006E-02
  (  1, 10,  5) (  1, 10, 10) (  1, 10, 10) (  1, 10, 10) (  1, 10, 10)
     0.5334E-03    0.2728E-03    0.7202E-04
  (  1, 10, 10) (  1, 10, 10) (  1, 13,  1)


 NO OUTPUT CONTROL FOR STRESS PERIOD   12   TIME STEP   6
 
 SOLVING FOR HEAD 
     8 ITERATIONS FOR TIME STEP   7 IN STRESS PERIOD   12

 MAXIMUM HEAD CHANGE FOR EACH ITERATION:

    HEAD CHANGE   HEAD CHANGE   HEAD CHANGE   HEAD CHANGE   HEAD CHANGE
  LAYER,ROW,COL LAYER,ROW,COL LAYER,ROW,COL LAYER,ROW,COL LAYER,ROW,COL
 ----------------------------------------------------------------------
     0.3396E-01    0.1145E-01    0.5572E-02    0.2664E-02    0.1353E-02
  (  1,  6,  4) (  1, 15,  4) (  1, 15,  4) (  1, 15,  4) (  1, 15,  4)
     0.6353E-03    0.3095E-03    0.1531E-03
  (  1, 15,  4) (  1, 15,  4) (  1, 15,  4)


 NO OUTPUT CONTROL FOR STRESS PERIOD   12   TIME STEP   7
 
 SOLVING FOR HEAD 
     8 ITERATIONS FOR TIME STEP   8 IN STRESS PERIOD   12

 MAXIMUM HEAD CHANGE FOR EACH ITERATION:

    HEAD CHANGE   HEAD CHANGE   HEAD CHANGE   HEAD CHANGE   HEAD CHANGE
  LAYER,ROW,COL LAYER,ROW,COL LAYER,ROW,COL LAYER,ROW,COL LAYER,ROW,COL
 ----------------------------------------------------------------------
     0.3607E-01    0.1250E-01    0.6058E-02    0.2915E-02    0.1435E-02
  (  1,  6,  4) (  1, 15,  4) (  1, 15,  4) (  1, 15,  4) (  1, 15,  4)
     0.6878E-03    0.3380E-03    0.1678E-03
  (  1, 15,  4) (  1, 15,  4) (  1, 15,  4)


 NO OUTPUT CONTROL FOR STRESS PERIOD   12   TIME STEP   8
 
 SOLVING FOR HEAD 
     8 ITERATIONS FOR TIME STEP   9 IN STRESS PERIOD   12

 MAXIMUM HEAD CHANGE FOR EACH ITERATION:

    HEAD CHANGE   HEAD CHANGE   HEAD CHANGE   HEAD CHANGE   HEAD CHANGE
  LAYER,ROW,COL LAYER,ROW,COL LAYER,ROW,COL LAYER,ROW,COL LAYER,ROW,COL
 ----------------------------------------------------------------------
     0.3866E-01    0.1358E-01    0.6573E-02    0.3243E-02    0.1530E-02
  (  1,  7,  4) (  1, 15,  4) (  1, 15,  4) (  1, 15,  4) (  1, 15,  4)
     0.7468E-03    0.3697E-03    0.1841E-03
  (  1, 15,  4) (  1, 15,  4) (  1, 15,  4)


 NO OUTPUT CONTROL FOR STRESS PERIOD   12   TIME STEP   9
 
 SOLVING FOR HEAD 
     8 ITERATIONS FOR TIME STEP  10 IN STRESS PERIOD   12

 MAXIMUM HEAD CHANGE FOR EACH ITERATION:

    HEAD CHANGE   HEAD CHANGE   HEAD CHANGE   HEAD CHANGE   HEAD CHANGE
  LAYER,ROW,COL LAYER,ROW,COL LAYER,ROW,COL LAYER,ROW,COL LAYER,ROW,COL
 ----------------------------------------------------------------------
     0.4197E-01    0.1430E-01    0.6918E-02    0.3322E-02    0.1634E-02
  (  1,  7,  4) (  1, 15,  4) (  1, 15,  4) (  1, 15,  4) (  1, 15,  4)
     0.8112E-03    0.3440E-03    0.1899E-03
  (  1, 15,  4) (  1, 15,  4) (  1, 15,  4)


 OUTPUT CONTROL FOR STRESS PERIOD   12   TIME STEP  10
    PRINT BUDGET
    SAVE BUDGET

  HEAD DEP BOUNDS   PERIOD   12   STEP  10
 BOUNDARY      1   LAYER   1   ROW    13   COL     1   RATE   -0.262740    
 BOUNDARY      2   LAYER   1   ROW    14   COL     9   RATE    0.209429    
 UBDSV3 SAVING "           GW ET" ON UNIT  61 AT TIME STEP 10, STRESS PERIOD  12
 UBDSV3 SAVING "    UZF INFILTR." ON UNIT  61 AT TIME STEP 10, STRESS PERIOD  12
 UBDSV3 SAVING "    UZF RECHARGE" ON UNIT  61 AT TIME STEP 10, STRESS PERIOD  12
 UBDSV3 SAVING " SURFACE LEAKAGE" ON UNIT  61 AT TIME STEP 10, STRESS PERIOD  12


UNSATURATED ZONE PACKAGE VOLUMETRIC BUDGET FOR  TIME STEP   10 STRESS PERIOD   12
  ------------------------------------------------------------------------------



     CUMULATIVE VOLUMES      L**3       RATES FOR THIS TIME STEP      L**3/T
     ------------------                 ------------------------

           IN:                                      IN:
           ---                                      ---
        INFILTRATION =  1525688302.6129          INFILTRATION =           8.4750

          OUT:                                     OUT:
          ----                                     ----
              UZF ET =  2090340209.0265                UZF ET =          34.1096
        UZF RECHARGE =   373885661.4343          UZF RECHARGE =           9.3023

            IN - OUT =  -938537567.8479              IN - OUT =         -34.9369

          STORAGE:                                 STORAGE:
          --------                                 --------
      STORAGE CHANGE =  -938329409.9249        STORAGE CHANGE =         -34.9351

 PERCENT DISCREPANCY IS DIFFERENCE BETWEEN IN-OUT MINUS CHANGE IN STORAGE
 DIVIDED BY THE AVERAGE OF IN AND OUT TIMES 100

 PERCENT DISCREPANCY =           0.00     PERCENT DISCREPANCY =           0.00









 STREAM LISTING     PERIOD     12   STEP       10

 LAYER ROW COL. STREAM  RCH.  FLOW INTO     FLOW TO   FLOW OUT OF   OVRLND.     DIRECT     STREAM       STREAM     STREAM     STREAM   STREAMBED  STREAMBED
                SEG.NO.  NO.  STRM. RCH.    AQUIFER    STRM. RCH.    RUNOFF     PRECIP       ET          HEAD       DEPTH      WIDTH   CONDCTNC.   GRADIENT

   1    1    1     1     1    2.5000E+01  1.0731E+00   2.3927E+01  0.000E+00  0.000E+00  0.000E+00  1.09422E+03  1.172E+00  1.296E+01  5.830E-01  6.136E-01
   1    2    2     1     2    2.3927E+01  3.0755E+00   2.0851E+01  0.000E+00  0.000E+00  0.000E+00  1.08920E+03  1.140E+00  1.253E+01  8.768E-01  1.169E+00
   1    3    3     1     3    2.0851E+01  2.9008E+00   1.7951E+01  0.000E+00  0.000E+00  0.000E+00  1.08351E+03  1.090E+00  1.182E+01  7.092E-01  1.363E+00
   1    3    4     1     4    1.7951E+01  2.4638E+00   1.5487E+01  0.000E+00  0.000E+00  0.000E+00  1.07845E+03  1.044E+00  1.098E+01  6.092E-01  1.348E+00
   1    4    5     2     1    5.4868E+00  2.6610E+00   2.8258E+00  0.000E+00  0.000E+00  0.000E+00  1.07235E+03  4.115E-01  1.200E+01  7.800E-01  1.137E+00
   1    5    6     2     2    2.8258E+00  1.9519E+00   8.7391E-01  0.000E+00  0.000E+00  0.000E+00  1.06676E+03  2.532E-01  1.200E+01  6.000E-01  1.084E+00
   1    6    6     2     3    8.7391E-01  8.7391E-01   0.0000E+00  0.000E+00  0.000E+00  0.000E+00  1.06183E+03  3.633E-02  1.200E+01  6.000E-01  1.012E+00
   1    7    6     2     4    0.0000E+00  0.0000E+00   0.0000E+00  0.000E+00  0.000E+00  0.000E+00  1.05708E+03  0.000E+00  1.200E+01  6.000E-01  1.000E+00
   1    8    6     2     5    0.0000E+00  0.0000E+00   0.0000E+00  0.000E+00  0.000E+00  0.000E+00  1.05236E+03  0.000E+00  1.200E+01  6.000E-01  1.000E+00
   1    3    5     3     1    1.0000E+01  2.8252E+00   7.1748E+00  0.000E+00  0.000E+00  0.000E+00  1.07555E+03  1.909E+00  9.636E+00  7.227E-01  1.955E+00
   1    3    6     3     2    7.1748E+00  1.9266E+00   5.2482E+00  0.000E+00  0.000E+00  0.000E+00  1.07264E+03  1.727E+00  8.909E+00  6.682E-01  1.442E+00
   1    3    7     3     3    5.2482E+00  9.2536E-01   4.3228E+00  0.000E+00  0.000E+00  0.000E+00  1.06987E+03  1.555E+00  8.218E+00  5.547E-01  8.341E-01
   1    4    8     3     4    4.3228E+00  1.5754E+00   2.7475E+00  0.000E+00  0.000E+00  0.000E+00  1.06682E+03  1.364E+00  7.455E+00  6.709E-01  1.174E+00
   1    5    8     3     5    2.7475E+00  1.5790E+00   1.1685E+00  0.000E+00  0.000E+00  0.000E+00  1.06362E+03  1.164E+00  6.655E+00  4.991E-01  1.582E+00
   1    6    8     3     6    1.1685E+00  5.5980E-01   6.0872E-01  0.000E+00  0.000E+00  0.000E+00  1.06158E+03  1.036E+00  6.145E+00  1.844E-01  1.518E+00
   1    5   10     4     1    1.0000E+01  9.0525E-01   9.0947E+00  0.000E+00  0.000E+00  0.000E+00  1.07835E+03  6.210E-01  1.000E+01  2.500E-01  1.207E+00
   1    5    9     4     2    9.0947E+00  1.7835E+00   7.3113E+00  0.000E+00  0.000E+00  0.000E+00  1.07148E+03  5.670E-01  1.000E+01  5.000E-01  1.189E+00
   1    6    8     4     3    7.3113E+00  1.2257E+00   6.0855E+00  0.000E+00  0.000E+00  0.000E+00  1.06368E+03  5.021E-01  1.000E+01  3.500E-01  1.167E+00
   1    6    8     5     1    6.6943E+00  8.2198E-01   5.8723E+00  0.000E+00  0.000E+00  0.000E+00  1.05857E+03  5.708E-01  1.145E+01  4.579E-01  5.984E-01
   1    7    7     5     2    5.8723E+00  1.6453E+00   4.2270E+00  0.000E+00  0.000E+00  0.000E+00  1.05403E+03  5.288E-01  1.004E+01  5.020E-01  1.092E+00
   1    8    7     5     3    4.2270E+00  1.0164E+00   3.2106E+00  0.000E+00  0.000E+00  0.000E+00  1.04973E+03  4.751E-01  8.357E+00  2.925E-01  1.158E+00
   1    8    6     5     4    3.2106E+00  6.0346E-01   2.6071E+00  0.000E+00  0.000E+00  0.000E+00  1.04669E+03  4.359E-01  7.211E+00  1.803E-01  1.116E+00
   1    9    6     6     1    2.6071E+00  1.9427E+00   6.6443E-01  0.000E+00  0.000E+00  0.000E+00  1.04297E+03  2.378E-01  1.200E+01  6.000E-01  1.079E+00
   1   10    7     6     2    6.6443E-01  6.6443E-01   0.0000E+00  0.000E+00  0.000E+00  0.000E+00  1.03821E+03  3.116E-02  1.200E+01  6.000E-01  1.010E+00
   1   11    7     6     3    0.0000E+00  0.0000E+00   0.0000E+00  0.000E+00  0.000E+00  0.000E+00  1.03364E+03  0.000E+00  1.200E+01  6.000E-01  9.883E-01
   1   12    7     6     4    0.0000E+00  0.0000E+00   0.0000E+00  0.000E+00  0.000E+00  0.000E+00  1.02909E+03  0.000E+00  1.200E+01  6.000E-01  2.607E-01
   1   13    7     6     5    0.0000E+00 -7.9923E-01   7.9923E-01  0.000E+00  0.000E+00  0.000E+00  1.02591E+03  0.000E+00  1.200E+01  2.400E-01 -1.110E+00
   1   14    9     7     1    1.5000E+02  2.1117E+00   1.4789E+02  0.000E+00  0.000E+00  0.000E+00  1.03987E+03  2.286E+00  5.529E+01  5.592E+00  1.259E-01
   1   13    8     7     2    1.4789E+02  3.0828E+00   1.4481E+02  0.000E+00  0.000E+00  0.000E+00  1.03477E+03  2.272E+00  5.522E+01  6.144E+00  1.673E-01
   1   13    7     7     3    1.4481E+02  2.4382E+00   1.4237E+02  0.000E+00  0.000E+00  0.000E+00  1.02968E+03  2.257E+00  5.516E+01  5.578E+00  1.457E-01
   1   13    6     8     1    1.4317E+02  7.0960E-01   1.4246E+02  0.000E+00  0.000E+00  0.000E+00  1.02464E+03  2.765E+00  4.010E+01  4.086E+00  5.789E-02
   1   13    5     8     2    1.4246E+02 -2.0568E+00   1.4451E+02  0.000E+00  0.000E+00  0.000E+00  1.01840E+03  2.770E+00  4.017E+01  4.093E+00 -1.675E-01
   1   13    4     8     3    1.4451E+02 -3.7634E+00   1.4828E+02  0.000E+00  0.000E+00  0.000E+00  1.01217E+03  2.791E+00  4.047E+01  4.124E+00 -3.042E-01
   1   13    3     8     4    1.4828E+02 -3.9876E+00   1.5226E+02  0.000E+00  0.000E+00  0.000E+00  1.00594E+03  2.819E+00  4.087E+01  4.165E+00 -3.191E-01
   1   13    2     8     5    1.5226E+02 -2.0197E+00   1.5428E+02  0.000E+00  0.000E+00  0.000E+00  9.99715E+02  2.840E+00  4.118E+01  4.196E+00 -1.604E-01
   1   13    1     8     6    1.5428E+02 -4.8186E-01   1.5477E+02  0.000E+00  0.000E+00  0.000E+00  9.94723E+02  2.848E+00  4.130E+01  2.525E+00 -6.360E-02



1
  VOLUMETRIC BUDGET FOR ENTIRE MODEL AT END OF TIME STEP 10 IN STRESS PERIOD  12
  ------------------------------------------------------------------------------

     CUMULATIVE VOLUMES      L**3       RATES FOR THIS TIME STEP      L**3/T
     ------------------                 ------------------------

           IN:                                      IN:
           ---                                      ---
             STORAGE =   127028696.0000               STORAGE =           0.9543
       CONSTANT HEAD =           0.0000         CONSTANT HEAD =           0.0000
               WELLS =           0.0000                 WELLS =           0.0000
     HEAD DEP BOUNDS =     6315740.0000       HEAD DEP BOUNDS =           0.2094
        UZF RECHARGE =   373885696.0000          UZF RECHARGE =           9.3023
               GW ET =           0.0000                 GW ET =           0.0000
     SURFACE LEAKAGE =           0.0000       SURFACE LEAKAGE =           0.0000
      STREAM LEAKAGE =  1304893696.0000        STREAM LEAKAGE =          43.3423

            TOTAL IN =  1812123776.0000              TOTAL IN =          53.8083

          OUT:                                     OUT:
          ----                                     ----
             STORAGE =   475689664.0000               STORAGE =          21.0006
       CONSTANT HEAD =           0.0000         CONSTANT HEAD =           0.0000
               WELLS =   394199968.0000                 WELLS =           0.0000
     HEAD DEP BOUNDS =     7963101.5000       HEAD DEP BOUNDS =           0.2627
        UZF RECHARGE =           0.0000          UZF RECHARGE =           0.0000
               GW ET =   528125024.0000                 GW ET =          19.4097
     SURFACE LEAKAGE =           0.0000       SURFACE LEAKAGE =           0.0000
      STREAM LEAKAGE =   405276224.0000        STREAM LEAKAGE =          13.1086

           TOTAL OUT =  1811254016.0000             TOTAL OUT =          53.7817

            IN - OUT =      869760.0000              IN - OUT =       2.6558E-02

 PERCENT DISCREPANCY =           0.05     PERCENT DISCREPANCY =           0.05






          TIME SUMMARY AT END OF TIME STEP  10 IN STRESS PERIOD   12
                    SECONDS     MINUTES      HOURS       DAYS        YEARS
                    -----------------------------------------------------------
   TIME STEP LENGTH 1.95033E+05  3250.6      54.176      2.2573     6.18023E-03
 STRESS PERIOD TIME 1.31823E+06  21971.      366.18      15.257     4.17723E-02
         TOTAL TIME 3.02262E+07 5.03770E+05  8396.2      349.84     0.95781    
1
 
 SOLVING FOR HEAD 
     9 ITERATIONS FOR TIME STEP  11 IN STRESS PERIOD   12

 MAXIMUM HEAD CHANGE FOR EACH ITERATION:

    HEAD CHANGE   HEAD CHANGE   HEAD CHANGE   HEAD CHANGE   HEAD CHANGE
  LAYER,ROW,COL LAYER,ROW,COL LAYER,ROW,COL LAYER,ROW,COL LAYER,ROW,COL
 ----------------------------------------------------------------------
     0.4543E-01    0.1537E-01    0.7468E-02    0.3558E-02    0.1710E-02
  (  1,  7,  4) (  1, 15,  4) (  1, 15,  4) (  1, 15,  4) (  1, 15,  4)
     0.8748E-03    0.3747E-03    0.2080E-03    0.1082E-03
  (  1, 15,  4) (  1, 15,  4) (  1, 15,  4) (  1, 15,  4)


 NO OUTPUT CONTROL FOR STRESS PERIOD   12   TIME STEP  11
 
 SOLVING FOR HEAD 
     9 ITERATIONS FOR TIME STEP  12 IN STRESS PERIOD   12

 MAXIMUM HEAD CHANGE FOR EACH ITERATION:

    HEAD CHANGE   HEAD CHANGE   HEAD CHANGE   HEAD CHANGE   HEAD CHANGE
  LAYER,ROW,COL LAYER,ROW,COL LAYER,ROW,COL LAYER,ROW,COL LAYER,ROW,COL
 ----------------------------------------------------------------------
     0.4916E-01    0.1606E-01    0.7750E-02    0.3673E-02    0.1759E-02
  (  1,  7,  4) (  1, 15,  4) (  1, 15,  4) (  1, 15,  4) (  1, 15,  4)
     0.8642E-03    0.3924E-03    0.2248E-03    0.1182E-03
  (  1, 15,  4) (  1, 15,  4) (  1, 15,  4) (  1, 15,  4)


 NO OUTPUT CONTROL FOR STRESS PERIOD   12   TIME STEP  12
 
 SOLVING FOR HEAD 
     8 ITERATIONS FOR TIME STEP  13 IN STRESS PERIOD   12

 MAXIMUM HEAD CHANGE FOR EACH ITERATION:

    HEAD CHANGE   HEAD CHANGE   HEAD CHANGE   HEAD CHANGE   HEAD CHANGE
  LAYER,ROW,COL LAYER,ROW,COL LAYER,ROW,COL LAYER,ROW,COL LAYER,ROW,COL
 ----------------------------------------------------------------------
     0.5288E-01    0.1722E-01    0.8270E-02    0.3906E-02    0.1907E-02
  (  1,  7,  4) (  1, 15,  4) (  1, 15,  4) (  1, 15,  4) (  1, 15,  4)
     0.9442E-03    0.4301E-03    0.1665E-03
  (  1, 15,  4) (  1, 15,  4) (  1, 15,  4)


 NO OUTPUT CONTROL FOR STRESS PERIOD   12   TIME STEP  13
 
 SOLVING FOR HEAD 
     9 ITERATIONS FOR TIME STEP  14 IN STRESS PERIOD   12

 MAXIMUM HEAD CHANGE FOR EACH ITERATION:

    HEAD CHANGE   HEAD CHANGE   HEAD CHANGE   HEAD CHANGE   HEAD CHANGE
  LAYER,ROW,COL LAYER,ROW,COL LAYER,ROW,COL LAYER,ROW,COL LAYER,ROW,COL
 ----------------------------------------------------------------------
     0.5694E-01    0.1782E-01    0.8518E-02    0.4091E-02    0.1880E-02
  (  1,  8,  4) (  1, 15,  4) (  1, 15,  4) (  1, 15,  4) (  1, 15,  4)
     0.9066E-03    0.4465E-03    0.2663E-03    0.1198E-03
  (  1, 15,  4) (  1, 15,  4) (  1, 15,  4) (  1, 10, 10)


 NO OUTPUT CONTROL FOR STRESS PERIOD   12   TIME STEP  14
 
 SOLVING FOR HEAD 
     9 ITERATIONS FOR TIME STEP  15 IN STRESS PERIOD   12

 MAXIMUM HEAD CHANGE FOR EACH ITERATION:

    HEAD CHANGE   HEAD CHANGE   HEAD CHANGE   HEAD CHANGE   HEAD CHANGE
  LAYER,ROW,COL LAYER,ROW,COL LAYER,ROW,COL LAYER,ROW,COL LAYER,ROW,COL
 ----------------------------------------------------------------------
     0.6179E-01    0.2329E-01    0.1124E-01    0.5419E-02    0.2596E-02
  (  1,  8,  4) (  1, 15,  3) (  1, 15,  3) (  1, 15,  3) (  1, 15,  3)
     0.1251E-02    0.6403E-03    0.2743E-03    0.1523E-03
  (  1, 15,  3) (  1, 15,  3) (  1, 15,  3) (  1, 15,  3)


 OUTPUT CONTROL FOR STRESS PERIOD   12   TIME STEP  15
    PRINT BUDGET
    PRINT HEAD FOR ALL LAYERS
    SAVE HEAD FOR ALL LAYERS
    SAVE BUDGET

  HEAD DEP BOUNDS   PERIOD   12   STEP  15
 BOUNDARY      1   LAYER   1   ROW    13   COL     1   RATE   -0.262624    
 BOUNDARY      2   LAYER   1   ROW    14   COL     9   RATE    0.209600    
 UBDSV3 SAVING "           GW ET" ON UNIT  61 AT TIME STEP 15, STRESS PERIOD  12
 UBDSV3 SAVING "    UZF INFILTR." ON UNIT  61 AT TIME STEP 15, STRESS PERIOD  12
 UBDSV3 SAVING "    UZF RECHARGE" ON UNIT  61 AT TIME STEP 15, STRESS PERIOD  12
 UBDSV3 SAVING " SURFACE LEAKAGE" ON UNIT  61 AT TIME STEP 15, STRESS PERIOD  12


UNSATURATED ZONE PACKAGE VOLUMETRIC BUDGET FOR  TIME STEP   15 STRESS PERIOD   12
  ------------------------------------------------------------------------------



     CUMULATIVE VOLUMES      L**3       RATES FOR THIS TIME STEP      L**3/T
     ------------------                 ------------------------

           IN:                                      IN:
           ---                                      ---
        INFILTRATION =  1536788572.4216          INFILTRATION =           8.4750

          OUT:                                     OUT:
          ----                                     ----
              UZF ET =  2130532688.3670                UZF ET =          29.5398
        UZF RECHARGE =   386676578.0189          UZF RECHARGE =          11.2482

            IN - OUT =  -980420693.9644              IN - OUT =         -32.3130

          STORAGE:                                 STORAGE:
          --------                                 --------
      STORAGE CHANGE =  -980293673.3463        STORAGE CHANGE =         -32.4109

 PERCENT DISCREPANCY IS DIFFERENCE BETWEEN IN-OUT MINUS CHANGE IN STORAGE
 DIVIDED BY THE AVERAGE OF IN AND OUT TIMES 100

 PERCENT DISCREPANCY =           0.00     PERCENT DISCREPANCY =           0.24









 STREAM LISTING     PERIOD     12   STEP       15

 LAYER ROW COL. STREAM  RCH.  FLOW INTO     FLOW TO   FLOW OUT OF   OVRLND.     DIRECT     STREAM       STREAM     STREAM     STREAM   STREAMBED  STREAMBED
                SEG.NO.  NO.  STRM. RCH.    AQUIFER    STRM. RCH.    RUNOFF     PRECIP       ET          HEAD       DEPTH      WIDTH   CONDCTNC.   GRADIENT

   1    1    1     1     1    2.5000E+01  1.0769E+00   2.3923E+01  0.000E+00  0.000E+00  0.000E+00  1.09422E+03  1.172E+00  1.295E+01  5.830E-01  6.158E-01
   1    2    2     1     2    2.3923E+01  3.0804E+00   2.0843E+01  0.000E+00  0.000E+00  0.000E+00  1.08920E+03  1.140E+00  1.252E+01  8.767E-01  1.171E+00
   1    3    3     1     3    2.0843E+01  2.9001E+00   1.7943E+01  0.000E+00  0.000E+00  0.000E+00  1.08351E+03  1.090E+00  1.182E+01  7.090E-01  1.363E+00
   1    3    4     1     4    1.7943E+01  2.4632E+00   1.5479E+01  0.000E+00  0.000E+00  0.000E+00  1.07845E+03  1.044E+00  1.097E+01  6.091E-01  1.348E+00
   1    4    5     2     1    5.4794E+00  2.6606E+00   2.8187E+00  0.000E+00  0.000E+00  0.000E+00  1.07234E+03  4.111E-01  1.200E+01  7.800E-01  1.137E+00
   1    5    6     2     2    2.8187E+00  1.9516E+00   8.6716E-01  0.000E+00  0.000E+00  0.000E+00  1.06676E+03  2.526E-01  1.200E+01  6.000E-01  1.084E+00
   1    6    6     2     3    8.6716E-01  8.6716E-01   0.0000E+00  0.000E+00  0.000E+00  0.000E+00  1.06183E+03  3.616E-02  1.200E+01  6.000E-01  1.012E+00
   1    7    6     2     4    0.0000E+00  0.0000E+00   0.0000E+00  0.000E+00  0.000E+00  0.000E+00  1.05708E+03  0.000E+00  1.200E+01  6.000E-01  1.000E+00
   1    8    6     2     5    0.0000E+00  0.0000E+00   0.0000E+00  0.000E+00  0.000E+00  0.000E+00  1.05236E+03  0.000E+00  1.200E+01  6.000E-01  1.000E+00
   1    3    5     3     1    1.0000E+01  2.8252E+00   7.1748E+00  0.000E+00  0.000E+00  0.000E+00  1.07555E+03  1.909E+00  9.636E+00  7.227E-01  1.955E+00
   1    3    6     3     2    7.1748E+00  1.9450E+00   5.2298E+00  0.000E+00  0.000E+00  0.000E+00  1.07264E+03  1.727E+00  8.909E+00  6.682E-01  1.455E+00
   1    3    7     3     3    5.2298E+00  9.3613E-01   4.2937E+00  0.000E+00  0.000E+00  0.000E+00  1.06987E+03  1.555E+00  8.218E+00  5.547E-01  8.438E-01
   1    4    8     3     4    4.2937E+00  1.5804E+00   2.7132E+00  0.000E+00  0.000E+00  0.000E+00  1.06682E+03  1.364E+00  7.455E+00  6.709E-01  1.178E+00
   1    5    8     3     5    2.7132E+00  1.5790E+00   1.1343E+00  0.000E+00  0.000E+00  0.000E+00  1.06362E+03  1.164E+00  6.655E+00  4.991E-01  1.582E+00
   1    6    8     3     6    1.1343E+00  5.5980E-01   5.7445E-01  0.000E+00  0.000E+00  0.000E+00  1.06158E+03  1.036E+00  6.145E+00  1.844E-01  1.518E+00
   1    5   10     4     1    1.0000E+01  9.0525E-01   9.0947E+00  0.000E+00  0.000E+00  0.000E+00  1.07835E+03  6.210E-01  1.000E+01  2.500E-01  1.207E+00
   1    5    9     4     2    9.0947E+00  1.7835E+00   7.3113E+00  0.000E+00  0.000E+00  0.000E+00  1.07148E+03  5.670E-01  1.000E+01  5.000E-01  1.189E+00
   1    6    8     4     3    7.3113E+00  1.2257E+00   6.0855E+00  0.000E+00  0.000E+00  0.000E+00  1.06368E+03  5.021E-01  1.000E+01  3.500E-01  1.167E+00
   1    6    8     5     1    6.6600E+00  8.1310E-01   5.8469E+00  0.000E+00  0.000E+00  0.000E+00  1.05857E+03  5.699E-01  1.141E+01  4.566E-01  5.936E-01
   1    7    7     5     2    5.8469E+00  1.6283E+00   4.2186E+00  0.000E+00  0.000E+00  0.000E+00  1.05403E+03  5.281E-01  1.002E+01  5.010E-01  1.083E+00
   1    8    7     5     3    4.2186E+00  1.0150E+00   3.2036E+00  0.000E+00  0.000E+00  0.000E+00  1.04972E+03  4.747E-01  8.346E+00  2.921E-01  1.158E+00
   1    8    6     5     4    3.2036E+00  5.8985E-01   2.6137E+00  0.000E+00  0.000E+00  0.000E+00  1.04669E+03  4.359E-01  7.211E+00  1.803E-01  1.091E+00
   1    9    6     6     1    2.6137E+00  1.9430E+00   6.7070E-01  0.000E+00  0.000E+00  0.000E+00  1.04297E+03  2.384E-01  1.200E+01  6.000E-01  1.079E+00
   1   10    7     6     2    6.7070E-01  6.7070E-01   0.0000E+00  0.000E+00  0.000E+00  0.000E+00  1.03821E+03  3.134E-02  1.200E+01  6.000E-01  1.010E+00
   1   11    7     6     3    0.0000E+00  0.0000E+00   0.0000E+00  0.000E+00  0.000E+00  0.000E+00  1.03364E+03  0.000E+00  1.200E+01  6.000E-01  9.844E-01
   1   12    7     6     4    0.0000E+00  0.0000E+00   0.0000E+00  0.000E+00  0.000E+00  0.000E+00  1.02909E+03  0.000E+00  1.200E+01  6.000E-01  2.614E-01
   1   13    7     6     5    0.0000E+00 -7.9884E-01   7.9884E-01  0.000E+00  0.000E+00  0.000E+00  1.02591E+03  0.000E+00  1.200E+01  2.400E-01 -1.110E+00
   1   14    9     7     1    1.5000E+02  2.1366E+00   1.4786E+02  0.000E+00  0.000E+00  0.000E+00  1.03987E+03  2.286E+00  5.529E+01  5.592E+00  1.274E-01
   1   13    8     7     2    1.4786E+02  3.1077E+00   1.4476E+02  0.000E+00  0.000E+00  0.000E+00  1.03477E+03  2.272E+00  5.522E+01  6.144E+00  1.686E-01
   1   13    7     7     3    1.4476E+02  2.4456E+00   1.4231E+02  0.000E+00  0.000E+00  0.000E+00  1.02968E+03  2.257E+00  5.516E+01  5.578E+00  1.462E-01
   1   13    6     8     1    1.4311E+02  7.1300E-01   1.4240E+02  0.000E+00  0.000E+00  0.000E+00  1.02464E+03  2.765E+00  4.009E+01  4.086E+00  5.817E-02
   1   13    5     8     2    1.4240E+02 -2.0497E+00   1.4445E+02  0.000E+00  0.000E+00  0.000E+00  1.01839E+03  2.770E+00  4.016E+01  4.093E+00 -1.669E-01
   1   13    4     8     3    1.4445E+02 -3.7614E+00   1.4821E+02  0.000E+00  0.000E+00  0.000E+00  1.01217E+03  2.791E+00  4.047E+01  4.124E+00 -3.041E-01
   1   13    3     8     4    1.4821E+02 -3.9789E+00   1.5219E+02  0.000E+00  0.000E+00  0.000E+00  1.00594E+03  2.818E+00  4.086E+01  4.164E+00 -3.185E-01
   1   13    2     8     5    1.5219E+02 -1.9977E+00   1.5418E+02  0.000E+00  0.000E+00  0.000E+00  9.99714E+02  2.839E+00  4.117E+01  4.195E+00 -1.587E-01
   1   13    1     8     6    1.5418E+02 -4.7581E-01   1.5466E+02  0.000E+00  0.000E+00  0.000E+00  9.94723E+02  2.848E+00  4.129E+01  2.525E+00 -6.282E-02



1
              HEAD IN LAYER   1 AT END OF TIME STEP  15 IN STRESS PERIOD   12
  ---------------------------------------------------------------------------

           1       2       3       4       5       6       7       8       9      10
 ...................................................................................
   1  1092.37 1088.61 6999.00 6999.00 6999.00 6999.00 6999.00 6999.00 6999.00 6999.00
   2  1089.01 1085.68 1079.29 6999.00 6999.00 1073.62 1072.54 1070.97 6999.00 6999.00
   3  6999.00 1077.38 1074.52 1070.40 1070.89 1069.73 1068.19 1067.88 6999.00 6999.00
   4  1069.50 1068.75 1067.10 1063.67 1062.51 1061.22 1061.78 1064.46 1063.91 6999.00
   5  1065.39 1061.87 1059.39 1057.54 1057.25 1057.77 1057.60 1059.59 1063.01 1065.39
   6  1060.65 1056.02 1053.11 1051.72 1052.00 1053.31 1054.52 1056.79 1059.55 1063.65
   7  1056.94 1050.38 1047.40 1046.23 1046.83 1048.45 1050.78 1053.10 1054.36 6999.00
   8  6999.00 1042.92 1041.40 1040.73 1041.58 1043.41 1045.19 1047.53 1049.31 6999.00
   9  6999.00 1035.92 1035.34 1035.29 1036.46 1038.47 1039.35 1041.08 1043.88 6999.00
  10  6999.00 1028.78 1029.18 1030.18 1031.62 1033.35 1034.61 1036.48 1040.18 1045.29
  11  6999.00 1019.85 1021.63 1025.14 1027.16 1029.21 1030.68 1032.95 1036.39 6999.00
  12  1001.20 1008.88 1014.17 1019.07 1022.71 1025.93 1028.31 1031.01 1034.88 6999.00
  13   994.91 1000.19 1006.90 1013.08 1018.90 1024.47 1029.24 1034.27 1036.38 6999.00
  14  6999.00 1005.79 1011.36 1016.09 1021.14 1025.87 1030.11 1035.21 1039.48 6999.00
  15  6999.00 6999.00 1018.95 1022.40 1026.57 1029.77 6999.00 6999.00 6999.00 6999.00

 HEAD WILL BE SAVED ON UNIT   58 AT END OF TIME STEP  15, STRESS PERIOD   12
1
  VOLUMETRIC BUDGET FOR ENTIRE MODEL AT END OF TIME STEP 15 IN STRESS PERIOD  12
  ------------------------------------------------------------------------------

     CUMULATIVE VOLUMES      L**3       RATES FOR THIS TIME STEP      L**3/T
     ------------------                 ------------------------

           IN:                                      IN:
           ---                                      ---
             STORAGE =   128220376.0000               STORAGE =           0.8660
       CONSTANT HEAD =           0.0000         CONSTANT HEAD =           0.0000
               WELLS =           0.0000                 WELLS =           0.0000
     HEAD DEP BOUNDS =     6590192.0000       HEAD DEP BOUNDS =           0.2096
        UZF RECHARGE =   386676608.0000          UZF RECHARGE =          11.2482
               GW ET =           0.0000                 GW ET =           0.0000
     SURFACE LEAKAGE =           0.0000       SURFACE LEAKAGE =           0.0000
      STREAM LEAKAGE =  1361714560.0000        STREAM LEAKAGE =          43.4029

            TOTAL IN =  1883201792.0000              TOTAL IN =          55.7266

          OUT:                                     OUT:
          ----                                     ----
             STORAGE =   503624928.0000               STORAGE =          22.7407
       CONSTANT HEAD =           0.0000         CONSTANT HEAD =           0.0000
               WELLS =   394199968.0000                 WELLS =           0.0000
     HEAD DEP BOUNDS =     8307136.0000       HEAD DEP BOUNDS =           0.2626
        UZF RECHARGE =           0.0000          UZF RECHARGE =           0.0000
               GW ET =   553773632.0000                 GW ET =          19.6267
     SURFACE LEAKAGE =           0.0000       SURFACE LEAKAGE =           0.0000
      STREAM LEAKAGE =   422405792.0000        STREAM LEAKAGE =          13.0623

           TOTAL OUT =  1882311424.0000             TOTAL OUT =          55.6924

            IN - OUT =      890368.0000              IN - OUT =       3.4260E-02

 PERCENT DISCREPANCY =           0.05     PERCENT DISCREPANCY =           0.06






          TIME SUMMARY AT END OF TIME STEP  15 IN STRESS PERIOD   12
                    SECONDS     MINUTES      HOURS       DAYS        YEARS
                    -----------------------------------------------------------
   TIME STEP LENGTH 3.14103E+05  5235.0      87.251      3.6354     9.95332E-03
 STRESS PERIOD TIME 2.62800E+06  43800.      730.00      30.417     8.32763E-02
         TOTAL TIME 3.15360E+07 5.25600E+05  8760.0      365.00     0.99932    
1

 Run end date and time (yyyy/mm/dd hh:mm:ss): 2008/04/14  9:40:10
 Elapsed run time: 14.374 Seconds

