                                  MODFLOW-2005     
      U.S. GEOLOGICAL SURVEY MODULAR FINITE-DIFFERENCE GROUND-WATER FLOW MODEL
                            VERSION 1.8.00 12/18/2009

 LIST FILE: UZFtest2.lst
                         UNIT    9

 OPENING ..\UZFtest2.ba6
 FILE TYPE:BAS6   UNIT   75   STATUS:OLD    
 FORMAT:FORMATTED              ACCESS:SEQUENTIAL          

 OPENING ..\UZFtest2.lpf
 FILE TYPE:LPF   UNIT    7   STATUS:OLD    
 FORMAT:FORMATTED              ACCESS:SEQUENTIAL          

 OPENING ..\UZFtest2.dis
 FILE TYPE:DIS   UNIT    8   STATUS:OLD    
 FORMAT:FORMATTED              ACCESS:SEQUENTIAL          

 OPENING ..\UZFtest2.sip
 FILE TYPE:SIP   UNIT   13   STATUS:OLD    
 FORMAT:FORMATTED              ACCESS:SEQUENTIAL          

 OPENING ..\UZFtest2.oc
 FILE TYPE:OC   UNIT   14   STATUS:OLD    
 FORMAT:FORMATTED              ACCESS:SEQUENTIAL          

 OPENING ..\UZFtest2.sfr
 FILE TYPE:SFR   UNIT   15   STATUS:OLD    
 FORMAT:FORMATTED              ACCESS:SEQUENTIAL          

 OPENING ..\UZFtest2.wel
 FILE TYPE:WEL   UNIT   16   STATUS:OLD    
 FORMAT:FORMATTED              ACCESS:SEQUENTIAL          

 OPENING ..\UZFtest2.ghb
 FILE TYPE:GHB   UNIT   17   STATUS:OLD    
 FORMAT:FORMATTED              ACCESS:SEQUENTIAL          

 OPENING ..\UZFtest2.uzf
 FILE TYPE:UZF   UNIT   19   STATUS:OLD    
 FORMAT:FORMATTED              ACCESS:SEQUENTIAL          

 OPENING ..\UZFtest2.gag
 FILE TYPE:GAGE   UNIT   32   STATUS:OLD    
 FORMAT:FORMATTED              ACCESS:SEQUENTIAL          

 OPENING UZFtest2hd.out
 FILE TYPE:DATA   UNIT   58   STATUS:UNKNOWN
 FORMAT:FORMATTED              ACCESS:SEQUENTIAL          

 OPENING UZFtest2.uzfot
 FILE TYPE:DATA(BINARY)   UNIT   61   STATUS:UNKNOWN
 FORMAT:BINARY                 ACCESS:SEQUENTIAL          

 OPENING UZFtest2.uzf1
 FILE TYPE:DATA   UNIT   65   STATUS:UNKNOWN
 FORMAT:FORMATTED              ACCESS:SEQUENTIAL          

 OPENING UZFtest2.uzf2
 FILE TYPE:DATA   UNIT   66   STATUS:UNKNOWN
 FORMAT:FORMATTED              ACCESS:SEQUENTIAL          

 OPENING UZFtest2.uzf3
 FILE TYPE:DATA   UNIT   67   STATUS:UNKNOWN
 FORMAT:FORMATTED              ACCESS:SEQUENTIAL          

 OPENING UZFtest2.uzf4
 FILE TYPE:DATA   UNIT   68   STATUS:UNKNOWN
 FORMAT:FORMATTED              ACCESS:SEQUENTIAL          

 OPENING UZFtest2.flw
 FILE TYPE:DATA   UNIT   81   STATUS:UNKNOWN
 FORMAT:FORMATTED              ACCESS:SEQUENTIAL          

 OPENING UZFtest2.sg1
 FILE TYPE:DATA   UNIT   83   STATUS:UNKNOWN
 FORMAT:FORMATTED              ACCESS:SEQUENTIAL          

 OPENING UZFtest2.sg2
 FILE TYPE:DATA   UNIT   84   STATUS:UNKNOWN
 FORMAT:FORMATTED              ACCESS:SEQUENTIAL          

 OPENING UZFtest2.sg3
 FILE TYPE:DATA   UNIT   85   STATUS:UNKNOWN
 FORMAT:FORMATTED              ACCESS:SEQUENTIAL          

 OPENING UZFtest2.sg4
 FILE TYPE:DATA   UNIT   86   STATUS:UNKNOWN
 FORMAT:FORMATTED              ACCESS:SEQUENTIAL          

 OPENING UZFtest2.sg5
 FILE TYPE:DATA   UNIT   87   STATUS:UNKNOWN
 FORMAT:FORMATTED              ACCESS:SEQUENTIAL          

 OPENING UZFtest2.sg6
 FILE TYPE:DATA   UNIT   88   STATUS:UNKNOWN
 FORMAT:FORMATTED              ACCESS:SEQUENTIAL          

 OPENING UZFtest2.sg7
 FILE TYPE:DATA   UNIT   89   STATUS:UNKNOWN
 FORMAT:FORMATTED              ACCESS:SEQUENTIAL          

 OPENING UZFtest2.sg8
 FILE TYPE:DATA   UNIT   90   STATUS:UNKNOWN
 FORMAT:FORMATTED              ACCESS:SEQUENTIAL          

 OPENING UZFtest2dv.sg9
 FILE TYPE:DATA   UNIT   91   STATUS:UNKNOWN
 FORMAT:FORMATTED              ACCESS:SEQUENTIAL          

 BAS -- BASIC PACKAGE, VERSION 7, 5/2/2005 INPUT READ FROM UNIT   75

 DISCRETIZATION INPUT DATA READ FROM UNIT    8
 #Test problem 2-- Discretization input
 #Example problem using the UZF1 Package
    1 LAYERS        15 ROWS        10 COLUMNS
   12 STRESS PERIOD(S) IN SIMULATION
 MODEL TIME UNIT IS SECONDS
 MODEL LENGTH UNIT IS FEET
  Confining bed flag for each layer:
   0

                     DELR =   5000.00    

                     DELC =   5000.00    



           TOP ELEVATION OF LAYER 1
 READING ON UNIT    8 WITH FORMAT: (10F7.0)            

            1           2           3           4           5           6           7           8           9          10
 ........................................................................................................................
   1    1105.       1105.       0.000       0.000       0.000       0.000       0.000       0.000       0.000       0.000    
   2    1105.       1095.       1105.       0.000       0.000       1100.       1100.       1110.       0.000       0.000    
   3    0.000       1100.       1085.       1080.       1078.       1076.       1073.       1090.       0.000       0.000    
   4    1110.       1100.       1090.       1085.       1076.       1080.       1080.       1070.       1100.       0.000    
   5    1110.       1100.       1085.       1080.       1078.       1074.       1077.       1066.       1075.       1080.    
   6    1105.       1095.       1080.       1077.       1073.       1069.       1070.       1063.       1085.       1095.    
   7    1105.       1090.       1075.       1072.       1070.       1065.       1065.       1069.       1090.       0.000    
   8    0.000       1080.       1070.       1068.       1063.       1060.       1063.       1067.       1090.       0.000    
   9    0.000       1075.       1065.       1062.       1058.       1052.       1055.       1065.       1090.       0.000    
  10    0.000       1070.       1060.       1055.       1046.       1046.       1044.       1060.       1088.       1100.    
  11    0.000       1055.       1050.       1045.       1041.       1042.       1040.       1050.       1075.       0.000    
  12    1027.       1028.       1028.       1032.       1032.       1033.       1032.       1040.       1060.       0.000    
  13    997.0       1004.       1008.       1014.       1020.       1027.       1032.       1038.       1050.       0.000    
  14    0.000       1030.       1040.       1045.       1050.       1050.       1050.       1050.       1044.       0.000    
  15    0.000       0.000       1080.       1080.       1080.       1080.       0.000       0.000       0.000       0.000    



             MODEL LAYER BOTTOM EL. FOR LAYER   1
 READING ON UNIT    8 WITH FORMAT: (10F7.0)            

            1           2           3           4           5           6           7           8           9          10
 ........................................................................................................................
   1    1000.       1000.       0.000       0.000       0.000       0.000       0.000       0.000       0.000       0.000    
   2    1000.       900.0       900.0       0.000       0.000       950.0       950.0       950.0       0.000       0.000    
   3    0.000       850.0       670.0       680.0       680.0       770.0       770.0       890.0       0.000       0.000    
   4    925.0       850.0       650.0       650.0       650.0       680.0       740.0       850.0       950.0       0.000    
   5    925.0       800.0       650.0       600.0       600.0       600.0       650.0       720.0       850.0       950.0    
   6    925.0       800.0       650.0       600.0       550.0       600.0       650.0       720.0       850.0       970.0    
   7    925.0       800.0       650.0       600.0       550.0       600.0       650.0       720.0       950.0       0.000    
   8    0.000       850.0       700.0       650.0       570.0       600.0       700.0       850.0       950.0       0.000    
   9    0.000       850.0       700.0       650.0       540.0       580.0       700.0       850.0       950.0       0.000    
  10    0.000       850.0       700.0       630.0       530.0       580.0       650.0       800.0       900.0       950.0    
  11    0.000       850.0       700.0       620.0       580.0       620.0       700.0       800.0       900.0       0.000    
  12    900.0       830.0       710.0       640.0       600.0       650.0       700.0       800.0       900.0       0.000    
  13    900.0       810.0       750.0       700.0       650.0       700.0       750.0       800.0       900.0       0.000    
  14    0.000       950.0       850.0       850.0       850.0       850.0       850.0       850.0       850.0       0.000    
  15    0.000       0.000       950.0       950.0       950.0       950.0       0.000       0.000       0.000       0.000    


 STRESS PERIOD     LENGTH       TIME STEPS     MULTIPLIER FOR DELT    SS FLAG
 ----------------------------------------------------------------------------
        1         2628000.          1                    1.000         SS
        2         2628000.         15                    1.100         TR
        3         2628000.         15                    1.100         TR
        4         2628000.         15                    1.100         TR
        5         2628000.         15                    1.100         TR
        6         2628000.         15                    1.100         TR
        7         2628000.         15                    1.100         TR
        8         2628000.         15                    1.100         TR
        9         2628000.         15                    1.100         TR
       10         2628000.         15                    1.100         TR
       11         2628000.         15                    1.100         TR
       12         2628000.         15                    1.100         TR

 COMBINED STEADY-STATE AND TRANSIENT SIMULATION



 
 #Test Simulation 2-- Example problem using the UZF1 Package                     
 #Modified from example Problem 1 of SFR1 documentation report                   
 THE FREE FORMAT OPTION HAS BEEN SELECTED



                     BOUNDARY ARRAY FOR LAYER   1
 READING ON UNIT   75 WITH FORMAT: (20I4)              

                1           2           3           4           5           6           7           8           9          10
 ............................................................................................................................
   1            1           1           0           0           0           0           0           0           0           0
   2            1           1           1           0           0           1           1           1           0           0
   3            0           1           1           1           1           1           1           1           0           0
   4            1           1           1           1           1           1           1           1           1           0
   5            1           1           1           1           1           1           1           1           1           1
   6            1           1           1           1           1           1           1           1           1           1
   7            1           1           1           1           1           1           1           1           1           0
   8            0           1           1           1           1           1           1           1           1           0
   9            0           1           1           1           1           1           1           1           1           0
  10            0           1           1           1           1           1           1           1           1           1
  11            0           1           1           1           1           1           1           1           1           0
  12            1           1           1           1           1           1           1           1           1           0
  13            1           1           1           1           1           1           1           1           1           0
  14            0           1           1           1           1           1           1           1           1           0
  15            0           0           1           1           1           1           0           0           0           0

 AQUIFER HEAD WILL BE SET TO   6999.0     AT ALL NO-FLOW NODES (IBOUND=0).



                       INITIAL HEAD FOR LAYER   1
 READING ON UNIT   75 WITH FORMAT: (10F8.0)            

            1           2           3           4           5           6           7           8           9          10
 ........................................................................................................................
   1    1093.       1089.       6999.       6999.       6999.       6999.       6999.       6999.       6999.       6999.    
   2    1090.       1087.       1081.       6999.       6999.       1072.       1071.       1071.       6999.       6999.    
   3    6999.       1079.       1078.       1074.       1072.       1071.       1069.       1068.       6999.       6999.    
   4    1069.       1071.       1070.       1067.       1065.       1064.       1064.       1066.       1066.       6999.    
   5    1065.       1064.       1063.       1062.       1061.       1061.       1060.       1062.       1066.       1068.    
   6    1060.       1058.       1057.       1056.       1056.       1057.       1057.       1059.       1062.       1066.    
   7    1056.       1053.       1052.       1051.       1051.       1052.       1053.       1055.       1056.       6999.    
   8    6999.       1046.       1046.       1046.       1046.       1046.       1048.       1050.       1050.       6999.    
   9    6999.       1039.       1039.       1039.       1040.       1041.       1042.       1043.       1044.       6999.    
  10    6999.       1031.       1032.       1033.       1034.       1035.       1037.       1038.       1039.       1042.    
  11    6999.       1021.       1023.       1027.       1029.       1030.       1032.       1034.       1036.       6999.    
  12    1001.       1009.       1015.       1020.       1023.       1026.       1029.       1030.       1034.       6999.    
  13    994.5       1000.       1007.       1013.       1019.       1024.       1029.       1034.       1036.       6999.    
  14    6999.       1004.       1009.       1014.       1019.       1024.       1029.       1035.       1039.       6999.    
  15    6999.       6999.       1012.       1015.       1019.       1022.       6999.       6999.       6999.       6999.    

 OUTPUT CONTROL IS SPECIFIED ONLY AT TIME STEPS FOR WHICH OUTPUT IS DESIRED
 HEADS WILL BE SAVED WITH FORMAT: (10F10.3)           
 SAVED HEADS WILL BE LABELED
 HEAD PRINT FORMAT CODE IS   4    DRAWDOWN PRINT FORMAT CODE IS   0
 HEADS WILL BE SAVED ON UNIT   58    DRAWDOWNS WILL BE SAVED ON UNIT    0

 LPF -- LAYER-PROPERTY FLOW PACKAGE, VERSION 7, 5/2/2005
         INPUT READ FROM UNIT    7
 #Layer-Property Flow Package input for test simulation 2
 HEAD AT CELLS THAT CONVERT TO DRY=   0.0000    
 No named parameters

   LAYER FLAGS:
 LAYER       LAYTYP        LAYAVG         CHANI        LAYVKA        LAYWET
 ---------------------------------------------------------------------------
    1             1             0     1.000E+00             0             0

   INTERPRETATION OF LAYER FLAGS:
                        INTERBLOCK     HORIZONTAL    DATA IN
         LAYER TYPE   TRANSMISSIVITY   ANISOTROPY   ARRAY VKA   WETTABILITY
 LAYER      (LAYTYP)      (LAYAVG)       (CHANI)      (LAYVKA)      (LAYWET)
 ---------------------------------------------------------------------------
    1   CONVERTIBLE      HARMONIC     1.000E+00    VERTICAL K  NON-WETTABLE

 WETTING CAPABILITY IS NOT ACTIVE IN ANY LAYER



              HYD. COND. ALONG ROWS FOR LAYER   1
 READING ON UNIT    7 WITH FORMAT: (10F5.0)            

            1           2           3           4           5           6           7           8           9          10
 ........................................................................................................................
   1   2.0000E-03  2.0000E-03   0.000       0.000       0.000       0.000       0.000       0.000       0.000       0.000    
   2   4.0000E-04  2.0000E-03  2.0000E-03   0.000       0.000      4.0000E-04  4.0000E-04  4.0000E-04   0.000       0.000    
   3    0.000      4.0000E-04  2.0000E-03  2.0000E-03  4.0000E-04  4.0000E-04  4.0000E-04  4.0000E-04   0.000       0.000    
   4   4.0000E-04  4.0000E-04  4.0000E-04  2.0000E-03  2.0000E-03  2.0000E-03  4.0000E-04  4.0000E-04  4.0000E-04   0.000    
   5   4.0000E-04  4.0000E-04  4.0000E-04  2.0000E-03  2.0000E-03  2.0000E-03  2.0000E-03  2.0000E-03  2.0000E-03  2.0000E-03
   6   4.0000E-04  4.0000E-04  4.0000E-04  2.0000E-03  2.0000E-03  2.0000E-03  2.0000E-03  2.0000E-03  4.0000E-04  4.0000E-04
   7   4.0000E-04  4.0000E-04  4.0000E-04  2.0000E-03  2.0000E-03  2.0000E-03  2.0000E-03  2.0000E-03  4.0000E-04   0.000    
   8    0.000      4.0000E-04  4.0000E-04  2.0000E-03  2.0000E-03  2.0000E-03  2.0000E-03  4.0000E-04  4.0000E-04   0.000    
   9    0.000      4.0000E-04  4.0000E-04  2.0000E-03  2.0000E-03  2.0000E-03  2.0000E-03  4.0000E-04  4.0000E-04   0.000    
  10    0.000      4.0000E-04  4.0000E-04  2.0000E-03  2.0000E-03  2.0000E-03  2.0000E-03  4.0000E-04  4.0000E-04  4.0000E-04
  11    0.000      4.0000E-04  4.0000E-04  2.0000E-03  2.0000E-03  2.0000E-03  2.0000E-03  4.0000E-04  4.0000E-04   0.000    
  12   4.0000E-04  4.0000E-04  2.0000E-03  2.0000E-03  2.0000E-03  2.0000E-03  2.0000E-03  4.0000E-04  4.0000E-04   0.000    
  13   2.0000E-03  2.0000E-03  2.0000E-03  2.0000E-03  2.0000E-03  2.0000E-03  2.0000E-03  2.0000E-03  2.0000E-03   0.000    
  14    0.000      4.0000E-04  4.0000E-04  4.0000E-04  4.0000E-04  4.0000E-04  4.0000E-04  4.0000E-04  2.0000E-03   0.000    
  15    0.000       0.000      4.0000E-04  4.0000E-04  4.0000E-04  4.0000E-04   0.000       0.000       0.000       0.000    

      VERTICAL HYD. COND. =  1.000000E-06 FOR LAYER   1

         SPECIFIC STORAGE =  1.000000E-06 FOR LAYER   1



                     SPECIFIC YIELD FOR LAYER   1
 READING ON UNIT    7 WITH FORMAT: (10F5.0)            

            1           2           3           4           5           6           7           8           9          10
 ........................................................................................................................
   1   0.2000      0.2000       0.000       0.000       0.000       0.000       0.000       0.000       0.000       0.000    
   2   0.1000      0.2000      0.2000       0.000       0.000      0.1000      0.1000      0.1000       0.000       0.000    
   3    0.000      0.1000      0.2000      0.2000      0.1000      0.1000      0.1000      0.1000       0.000       0.000    
   4   0.1000      0.1000      0.1000      0.2000      0.2000      0.2000      0.1000      0.1000      0.1000       0.000    
   5   0.1000      0.1000      0.1000      0.2000      0.2000      0.2000      0.2000      0.2000      0.2000      0.2000    
   6   0.1000      0.1000      0.1000      0.2000      0.2000      0.2000      0.2000      0.2000      0.1000      0.1000    
   7   0.1000      0.1000      0.1000      0.2000      0.2000      0.2000      0.2000      0.2000      0.1000       0.000    
   8    0.000      0.1000      0.1000      0.2000      0.2000      0.2000      0.2000      0.1000      0.1000       0.000    
   9    0.000      0.1000      0.1000      0.2000      0.2000      0.2000      0.2000      0.1000      0.1000       0.000    
  10    0.000      0.1000      0.1000      0.2000      0.2000      0.2000      0.2000      0.1000      0.1000      0.1000    
  11    0.000      0.1000      0.1000      0.2000      0.2000      0.2000      0.2000      0.1000      0.1000       0.000    
  12   0.1000      0.1000      0.2000      0.2000      0.2000      0.2000      0.2000      0.1000      0.1000       0.000    
  13   0.2000      0.2000      0.2000      0.2000      0.2000      0.2000      0.2000      0.2000      0.2000       0.000    
  14    0.000      0.1000      0.1000      0.1000      0.1000      0.1000      0.1000      0.1000      0.2000       0.000    
  15    0.000       0.000      0.1000      0.1000      0.1000      0.1000       0.000       0.000       0.000       0.000    

 WEL -- WELL PACKAGE, VERSION 7, 5/2/2005 INPUT READ FROM UNIT   16
 #Well Package input for test simulation 2
 No named parameters
 MAXIMUM OF     10 ACTIVE WELLS AT ONE TIME
 CELL-BY-CELL FLOWS WILL BE PRINTED WHEN ICBCFL NOT 0


     0 Well parameters

 GHB -- GENERAL-HEAD BOUNDARY PACKAGE, VERSION 7, 5/2/2005
         INPUT READ FROM UNIT   17
 No named parameters
 MAXIMUM OF      2 ACTIVE GHB CELLS AT ONE TIME
 CELL-BY-CELL FLOWS WILL BE PRINTED WHEN ICBCFL NOT 0


     0 GHB parameters

 SFR7 -- STREAMFLOW ROUTING PACKAGE, VERSION 7.1.02, 06/29/2009
         INPUT READ FROM UNIT  15
 #SFR2 Package input for Test Simulation 2


 NUMBER OF STREAM REACHES IS   36

 NUMBER OF STREAM SEGMENTS IS    8

 NUMBER OF STREAM PARAMETERS IS    0

 NUMBER OF STREAM SEGMENTS DEFINED USING PARAMETERS IS    0

 MAXIMUM ERROR FOR STREAM LEAKAGE RATES IS  1.00E-06

 CONSTANT FOR MANNINGS EQUATION IS  1.4860E+00



 STREAM OUTPUT WILL BE WRITTEN TO FILE ON UNIT  81


   STREAM NETWORK DESCRIPTION: 

   LAYER    ROW    COL   SEGMENT   REACH     LENGTH
                          NUMBER   NUMBER    IN CELL
   --------------------------------------------------
      1      1      1       1        1    4.5000E+03
      1      2      2       1        2    7.0000E+03
      1      3      3       1        3    6.0000E+03
      1      3      4       1        4    5.5500E+03
      1      4      5       2        1    6.5000E+03
      1      5      6       2        2    5.0000E+03
      1      6      6       2        3    5.0000E+03
      1      7      6       2        4    5.0000E+03
      1      8      6       2        5    5.0000E+03
      1      3      5       3        1    5.0000E+03
      1      3      6       3        2    5.0000E+03
      1      3      7       3        3    4.5000E+03
      1      4      8       3        4    6.0000E+03
      1      5      8       3        5    5.0000E+03
      1      6      8       3        6    2.0000E+03
      1      5     10       4        1    2.5000E+03
      1      5      9       4        2    5.0000E+03
      1      6      8       4        3    3.5000E+03
      1      6      8       5        1    4.0000E+03
      1      7      7       5        2    5.0000E+03
      1      8      7       5        3    3.5000E+03
      1      8      6       5        4    2.5000E+03
      1      9      6       6        1    5.0000E+03
      1     10      7       6        2    5.0000E+03
      1     11      7       6        3    5.0000E+03
      1     12      7       6        4    5.0000E+03
      1     13      7       6        5    2.0000E+03
      1     14      9       7        1    5.0000E+03
      1     13      8       7        2    5.5000E+03
      1     13      7       7        3    5.0000E+03
      1     13      6       8        1    5.0000E+03
      1     13      5       8        2    5.0000E+03
      1     13      4       8        3    5.0000E+03
      1     13      3       8        4    5.0000E+03
      1     13      2       8        5    5.0000E+03
      1     13      1       8        6    3.0000E+03




 UZF1 -- UNSATURATED FLOW PACKAGE, VERSION 1.2, 01/14/2006
         INPUT READ FROM UNIT 19
 #UZF Package input for test simulation 2



            AREAL EXTENT OF UZ FLOW
 READING ON UNIT   19 WITH FORMAT: (20I4)              

                1           2           3           4           5           6           7           8           9          10
 ............................................................................................................................
   1            1           1           0           0           0           0           0           0           0           0
   2            1           1           1           0           0           1           1           1           0           0
   3            0           1           1           1           1           1           1           1           0           0
   4            1           1           1           1           1           1           1           1           1           0
   5            1           1           1           1           1           1           1           1           1           1
   6            1           1           1           1           1           1           1           1           1           1
   7            1           1           1           1           1           1           1           1           1           0
   8            0           1           1           1           1           1           1           1           1           0
   9            0           1           1           1           1           1           1           1           1           0
  10            0           1           1           1           1           1           1           1           1           1
  11            0           1           1           1           1           1           1           1           1           0
  12            1           1           1           1           1           1           1           1           1           0
  13            1           1           1           1           1           1           1           1           1           0
  14            0           1           1           1           1           1           1           1           1           0
  15            0           0           1           1           1           1           0           0           0           0
 OPTION 1 -- RECHARGE IN UZF TO TOP LAYER ONLY 



            ROUTING OVERLAND RUNOFF
 READING ON UNIT   19 WITH FORMAT: (20I4)              

                1           2           3           4           5           6           7           8           9          10
 ............................................................................................................................
   1            1           1           0           0           0           0           0           0           0           0
   2            1           1           1           0           0           3           3           3           0           0
   3            0           1           1           1           3           3           3           3           0           0
   4            8           8           2           2           2           2           2           3           3           0
   5            8           8           8           8           2           2           2           3           4           4
   6            8           8           8           8           8           2           2           4           4           4
   7            8           8           8           8           8           2           5           5           5           0
   8            0           8           8           8           8           2           5           5           5           0
   9            0           8           8           8           8           6           6           6           6           0
  10            0           8           8           8           8           6           6           6           6           6
  11            0           8           8           8           8           8           6           6           7           0
  12            8           8           8           8           8           8           6           7           7           0
  13            8           8           8           8           8           8           7           7           7           0
  14            0           8           8           8           8           8           7           7           7           0
  15            0           0           8           8           8           8           0           0           0           0



               SATURATED VERTICAL K
 READING ON UNIT   19 WITH FORMAT: (10F4.0)            

            1           2           3           4           5           6           7           8           9          10
 ........................................................................................................................
   1   1.0000E-06  1.0000E-06   0.000       0.000       0.000       0.000       0.000       0.000       0.000       0.000    
   2   1.0000E-06  1.0000E-06  1.0000E-06   0.000       0.000      1.0000E-06  1.0000E-06  1.0000E-06   0.000       0.000    
   3    0.000      1.0000E-06  1.0000E-06  1.0000E-06  1.0000E-06  1.0000E-06  1.0000E-06  1.0000E-06   0.000       0.000    
   4   1.0000E-06  1.0000E-06  1.0000E-06  1.0000E-06  1.0000E-06  1.0000E-06  1.0000E-06  1.0000E-06  1.0000E-06   0.000    
   5   1.0000E-06  1.0000E-06  1.0000E-06  1.0000E-06  1.0000E-06  1.0000E-06  1.0000E-06  1.0000E-06  1.0000E-06  1.0000E-06
   6   1.0000E-06  1.0000E-06  1.0000E-06  1.0000E-06  1.0000E-06  1.0000E-06  1.0000E-06  1.0000E-06  1.0000E-06  1.0000E-06
   7   1.0000E-06  1.0000E-06  1.0000E-06  1.0000E-06  1.0000E-06  1.0000E-06  1.0000E-06  1.0000E-06  1.0000E-06   0.000    
   8    0.000      1.0000E-06  1.0000E-06  1.0000E-06  1.0000E-06  1.0000E-06  1.0000E-06  1.0000E-06  1.0000E-06   0.000    
   9    0.000      1.0000E-06  1.0000E-06  1.0000E-06  1.0000E-06  1.0000E-06  1.0000E-06  1.0000E-06  1.0000E-06   0.000    
  10    0.000      1.0000E-06  1.0000E-06  1.0000E-06  1.0000E-06  1.0000E-06  1.0000E-06  1.0000E-06  1.0000E-06  1.0000E-06
  11    0.000      1.0000E-06  1.0000E-06  1.0000E-06  1.0000E-06  1.0000E-06  1.0000E-06  1.0000E-06  1.0000E-06   0.000    
  12   1.0000E-06  1.0000E-06  1.0000E-06  1.0000E-06  1.0000E-06  1.0000E-06  1.0000E-06  1.0000E-06  1.0000E-06   0.000    
  13   1.0000E-06  1.0000E-06  1.0000E-06  1.0000E-06  1.0000E-06  1.0000E-06  1.0000E-06  1.0000E-06  1.0000E-06   0.000    
  14    0.000      1.0000E-06  1.0000E-06  1.0000E-06  1.0000E-06  1.0000E-06  1.0000E-06  1.0000E-06  1.0000E-06   0.000    
  15    0.000       0.000      1.0000E-06  1.0000E-06  1.0000E-06  1.0000E-06   0.000       0.000       0.000       0.000    

     BROOKS-COREY EPSILON =   3.50000    

  SATURATED WATER CONTENT =  0.300000    

UNSATURATED FLOW RESULTS WILL BE PRINTED TO SEPARATE FILES FOR SELECTED MODEL CELLS, AND TIME STEPS AS DEFINED BY OUTPUT CONTROL PACKAGE 

SELECTED MODEL CELLS ARE: 
 ROW NUMBER  COLUMN NUMBER  FORTRAN UNIT NUMBER  OUTPUT OPTION


       3             6                 65                 1
       6             3                 66                 2
      10             5                 67                 3
       0             0                 68                 4



   9 GAGING STATIONS WERE SPECIFIED.
     (Lakes are identified by a negative value of the Lake Number)
     RECORDS WILL BE WRITTEN TO SEPARATE OUTPUT FILES REPRESENTED BY FOLLOWING UNIT NUMBERS:

 Stream Gages:
  GAGE #   SEGMENT   REACH   UNIT   OUTTYPE
       1       1       4      83       1
       2       2       3      84       1
       3       3       5      85       1
       4       4       3      86       1
       5       5       4      87       4
       6       6       5      88       4
       7       7       3      89       4
       8       8       6      90       4
       9       3       1      91       5





 SIP -- STRONGLY-IMPLICIT PROCEDURE SOLUTION PACKAGE
                    VERSION 7, 5/2/2005 INPUT READ FROM UNIT   13
 MAXIMUM OF 300 ITERATIONS ALLOWED FOR CLOSURE
  5 ITERATION PARAMETERS

          SOLUTION BY THE STRONGLY IMPLICIT PROCEDURE
          -------------------------------------------
 MAXIMUM ITERATIONS ALLOWED FOR CLOSURE =      300
                 ACCELERATION PARAMETER =    0.80000    
      HEAD CHANGE CRITERION FOR CLOSURE =    0.20000E-03
      SIP HEAD CHANGE PRINTOUT INTERVAL =        1

     CALCULATE ITERATION PARAMETERS FROM MODEL CALCULATED WSEED
1
                            STRESS PERIOD NO.    1, LENGTH =   2628000.    
                            -----------------------------------------------

                              NUMBER OF TIME STEPS =     1

                               MULTIPLIER FOR DELT =     1.000

                            INITIAL TIME STEP SIZE =   2628000.    

 WELL NO.  LAYER   ROW   COL   STRESS RATE         
 --------------------------------------------------
      1      1      6      4      -2.000    
      2      1      6      5      -2.000    
      3      1      7      4      -2.000    
      4      1      7      5      -2.000    
      5      1      8      4      -2.000    
      6      1      8      5      -2.000    
      7      1      9      4      -2.000    
      8      1      9      5      -2.000    
      9      1     10      4      -2.000    
     10      1     10      5      -2.000    

     10 WELLS

 BOUND. NO. LAYER   ROW   COL     STAGE      CONDUCTANCE         
 ----------------------------------------------------------------
      1      1     13      1       988.0          0.3800E-01
      2      1     14      9       1045.          0.3800E-01

      2 GHB CELLS



 CLASSIFICATION & COUNT OF STREAM SEGMENTS BASED ON SOURCE OF INFLOW:

                HEADWATER     DIVERSION     RECEIVES TRIBUTARY FLOW
                ---------     ---------     -----------------------
                     3              1               4



                    INPUT DATA FOR EACH STREAM SEGMENT
 ---------------------------------------------------------------------------------------------

 SEGMENT    SEG.     INFLOW   OVERLAND   STREAM    STREAM   ICALC  OUTFLOW  DIVERSION PRIORITY
    NO.    LENGTH     RATE     RUNOFF      ET       PPT.    METH.  TO SEG.  FROM SEG.    NO.

      1  2.305E+04 2.500E+01 0.000E+00 0.000E+00 0.000E+00    4        2        0        0
      2  2.650E+04 0.000E+00 0.000E+00 0.000E+00 0.000E+00    1        6        0        0
      3  2.750E+04 1.000E+01 0.000E+00 0.000E+00 0.000E+00    0        5        1        0
      4  1.100E+04 1.000E+01 0.000E+00 0.000E+00 0.000E+00    1        5        0        0
      5  1.500E+04 0.000E+00 0.000E+00 0.000E+00 0.000E+00    3        6        0        0
      6  2.200E+04 0.000E+00 0.000E+00 0.000E+00 0.000E+00    1        8        0        0
      7  1.550E+04 1.500E+02 0.000E+00 0.000E+00 0.000E+00    2        8        0        0
      8  2.800E+04 0.000E+00 0.000E+00 0.000E+00 0.000E+00    2        0        0        0


         STREAMBED PROPERTIES AND STREAM DIMENSIONS

 SEGMENT     BED HYD. COND.      BED THICKNESS     ELEV.-TOP OF BED     WIDTH OF STREAM     DEPTH OF STREAM    STREAM ROUGHNESS
    No.     UPPER     LOWER     UPPER     LOWER     UPPER     LOWER     UPPER     LOWER     UPPER     LOWER   CHANNEL      BANK

     1  3.000E-05 3.000E-05 3.000E+00 3.000E+00 1.095E+03 1.075E+03
     2  3.000E-05 3.000E-05 3.000E+00 3.000E+00 1.075E+03 1.050E+03 1.200E+01 1.200E+01                     3.000E-02
     3  3.000E-05 3.000E-05 2.000E+00 2.000E+00 1.075E+03 1.060E+03 1.000E+01 6.000E+00 2.000E+00 1.000E+00
     4  3.000E-05 3.000E-05 3.000E+00 3.000E+00 1.080E+03 1.060E+03 1.000E+01 1.000E+01                     3.000E-02
     5  3.000E-05 3.000E-05 3.000E+00 3.000E+00 1.060E+03 1.045E+03
     6  3.000E-05 3.000E-05 3.000E+00 3.000E+00 1.045E+03 1.025E+03 1.200E+01 1.200E+01                     3.000E-02
     7  6.000E-05 6.000E-05 3.000E+00 3.000E+00 1.040E+03 1.025E+03                                         2.500E-02 4.500E-02
     8  6.000E-05 6.000E-05 3.000E+00 3.000E+00 1.025E+03 9.900E+02                                         2.500E-02 4.500E-02

  EIGHT POINT CROSS-SECTION DATA FOR SEGMENTS WITH ICALC = 2
    X VALUES X VALUES START FROM LEFT SIDE LOOKING DOWNSTREAM

     SEGMENT NO.        X1        X2        X3        X4        X5        X6        X7        X8
            7      0.000E+00 1.000E+01 8.000E+01 1.000E+02 1.500E+02 1.700E+02 2.400E+02 2.500E+02
            8      0.000E+00 1.000E+01 8.000E+01 1.000E+02 1.500E+02 1.700E+02 2.400E+02 2.500E+02

    Z VALUES ARE RELATIVE TO STREAMBED ELEVATION

     SEGMENT NO.          Z1        Z2        Z3        Z4        Z5        Z6        Z7        Z8
            7      2.000E+01 1.300E+01 1.000E+01 2.000E+00 0.000E+00 1.000E+01 1.300E+01 2.000E+01
            8      2.500E+01 1.700E+01 1.300E+01 4.000E+00 0.000E+00 1.000E+01 1.600E+01 2.000E+01

 STREAMFLOW RELATION WITH DEPTH IS BASED ON EQUATION Q = CDPTH*(DEPTH)**FDPTH
 STREAMFLOW RELATION WITH WIDTH IS BASED ON EQUATION Q = AWDTH*(WIDTH)**BWDTH

 SEGMENT NO.      CDPTH     FDPTH    AWDTH     BWDTH

          5 3.000E-01 3.500E-01 3.800E+00 6.000E-01

 STREAMFLOW RELATION WITH DEPTH AND WIDTH IS BASED ON TABULATED VALUES

  SEGMENT NO.   STREAMFLOW       DEPTH       WIDTH

          1     5.0000E-01   2.5000E-01   3.0000E+00
          1     1.0000E+00   4.0000E-01   3.5000E+00
          1     2.0000E+00   5.5000E-01   4.2000E+00
          1     4.0000E+00   7.0000E-01   5.3000E+00
          1     7.0000E+00   8.0000E-01   7.0000E+00
          1     1.0000E+01   9.0000E-01   8.5000E+00
          1     2.0000E+01   1.1000E+00   1.2000E+01
          1     3.0000E+01   1.2500E+00   1.4000E+01
          1     5.0000E+01   1.4000E+00   1.7000E+01
          1     7.5000E+01   1.7000E+00   2.0000E+01
          1     1.0000E+02   1.8000E+00   2.2000E+01






            AREAL INFILTRATION RATE
 READING ON UNIT   19 WITH FORMAT: (10F4.0)            

            1           2           3           4           5           6           7           8           9          10
 ........................................................................................................................
   1   1.0000E-09  2.0000E-09   0.000       0.000       0.000       0.000       0.000       0.000       0.000       0.000    
   2   2.0000E-09  1.0000E-09  2.0000E-09   0.000       0.000      8.0000E-09  8.0000E-09  5.0000E-09   0.000       0.000    
   3    0.000      5.0000E-09  1.0000E-09  1.0000E-09  8.0000E-09  8.0000E-09  5.0000E-09  5.0000E-09   0.000       0.000    
   4   8.0000E-09  5.0000E-09  1.0000E-09  1.0000E-09  1.0000E-09  1.0000E-09  1.0000E-09  1.0000E-09  2.0000E-09   0.000    
   5   8.0000E-09  5.0000E-09  1.0000E-09  1.0000E-09  1.0000E-09  1.0000E-09  1.0000E-09  1.0000E-09  1.0000E-09  1.0000E-09
   6   8.0000E-09  5.0000E-09  5.0000E-09  2.0000E-09  2.0000E-09  1.0000E-09  1.0000E-09  1.0000E-09  1.0000E-09  5.0000E-09
   7   8.0000E-09  5.0000E-09  5.0000E-09  2.0000E-09  2.0000E-09  1.0000E-09  1.0000E-09  2.0000E-09  2.0000E-09   0.000    
   8    0.000      5.0000E-09  5.0000E-09  2.0000E-09  2.0000E-09  1.0000E-09  1.0000E-09  2.0000E-09  5.0000E-09   0.000    
   9    0.000      5.0000E-09  5.0000E-09  2.0000E-09  2.0000E-09  1.0000E-09  1.0000E-09  2.0000E-09  5.0000E-09   0.000    
  10    0.000      5.0000E-09  5.0000E-09  2.0000E-09  2.0000E-09  1.0000E-09  1.0000E-09  2.0000E-09  5.0000E-09  8.0000E-09
  11    0.000      1.0000E-09  1.0000E-09  1.0000E-09  1.0000E-09  1.0000E-09  1.0000E-09  2.0000E-09  5.0000E-09   0.000    
  12   1.0000E-09  1.0000E-09  1.0000E-09  1.0000E-09  1.0000E-09  1.0000E-09  1.0000E-09  1.0000E-09  2.0000E-09   0.000    
  13   1.0000E-09  1.0000E-09  2.0000E-09  2.0000E-09  2.0000E-09  2.0000E-09  2.0000E-09  1.0000E-09  1.0000E-09   0.000    
  14    0.000      2.0000E-09  5.0000E-09  5.0000E-09  5.0000E-09  5.0000E-09  5.0000E-09  2.0000E-09  1.0000E-09   0.000    
  15    0.000       0.000      8.0000E-09  8.0000E-09  8.0000E-09  8.0000E-09   0.000       0.000       0.000       0.000    

                  ET RATE =  5.000000E-08

      ET EXTINCTION DEPTH =   15.0000    



           EXTINCTION WATER CONTENT
 READING ON UNIT   19 WITH FORMAT: (10F4.0)            

            1           2           3           4           5           6           7           8           9          10
 ........................................................................................................................
   1   0.1000      0.1000       0.000       0.000       0.000       0.000       0.000       0.000       0.000       0.000    
   2   0.2000      0.1000      0.1000       0.000       0.000      0.2000      0.2000      0.2000       0.000       0.000    
   3    0.000      0.2000      0.1000      0.1000      0.2000      0.2000      0.2000      0.2000       0.000       0.000    
   4   0.2000      0.2000      0.2000      0.1000      0.1000      0.1000      0.2000      0.2000      0.2000      0.1000    
   5   0.2000      0.2000      0.2000      0.1000      0.1000      0.1000      0.1000      0.1000      0.1000      0.1000    
   6   0.2000      0.2000      0.2000      0.1000      0.1000      0.1000      0.1000      0.1000      0.2000      0.2000    
   7   0.2000      0.2000      0.2000      0.1000      0.1000      0.1000      0.1000      0.1000      0.2000       0.000    
   8    0.000      0.2000      0.2000      0.1000      0.1000      0.1000      0.1000      0.2000      0.2000       0.000    
   9    0.000      0.2000      0.2000      0.1000      0.1000      0.1000      0.1000      0.2000      0.2000       0.000    
  10    0.000      0.2000      0.2000      0.1000      0.1000      0.1000      0.1000      0.2000      0.2000      0.2000    
  11    0.000      0.2000      0.2000      0.1000      0.1000      0.1000      0.1000      0.2000      0.2000       0.000    
  12   0.2000      0.2000      0.1000      0.1000      0.1000      0.1000      0.1000      0.2000      0.2000       0.000    
  13   0.1000      0.1000      0.1000      0.1000      0.1000      0.1000      0.1000      0.1000      0.1000       0.000    
  14    0.000      0.2000      0.2000      0.2000      0.2000      0.2000      0.2000      0.2000      0.1000       0.000    
  15    0.000       0.000      0.2000      0.2000      0.2000      0.2000       0.000       0.000       0.000       0.000    
 
 SOLVING FOR HEAD 

 AVERAGE SEED = 0.00926840
 MINIMUM SEED = 0.00187768

     5 ITERATION PARAMETERS CALCULATED FROM AVERAGE SEED:

  0.000000E+00 0.689722E+00 0.903727E+00 0.970129E+00 0.990732E+00

    30 ITERATIONS FOR TIME STEP   1 IN STRESS PERIOD    1

 MAXIMUM HEAD CHANGE FOR EACH ITERATION:

    HEAD CHANGE   HEAD CHANGE   HEAD CHANGE   HEAD CHANGE   HEAD CHANGE
  LAYER,ROW,COL LAYER,ROW,COL LAYER,ROW,COL LAYER,ROW,COL LAYER,ROW,COL
 ----------------------------------------------------------------------
      5.187        -1.627        -1.328        -1.137        -1.207    
  (  1, 15,  3) (  1,  8,  4) (  1,  6,  4) (  1,  7,  2) (  1, 10,  7)
    -0.4944       -0.1954       -0.2020       -0.2794       -0.1413    
  (  1, 10, 10) (  1,  9,  9) (  1,  8,  7) (  1,  7,  6) (  1, 10,  7)
    -0.1806       -0.3592E-01   -0.4330E-01   -0.4096E-01   -0.3819E-01
  (  1, 10, 10) (  1, 10, 10) (  1,  6,  5) (  1,  7,  1) (  1,  6,  6)
    -0.3408E-01   -0.8375E-02   -0.6788E-02   -0.9080E-02   -0.4942E-02
  (  1, 10, 10) (  1,  9,  9) (  1,  8,  5) (  1,  6,  1) (  1,  8,  2)
    -0.6400E-02   -0.1278E-02   -0.1615E-02   -0.1528E-02   -0.1478E-02
  (  1, 10, 10) (  1, 10, 10) (  1,  6,  5) (  1,  7,  1) (  1,  6,  6)
    -0.1253E-02   -0.3157E-03   -0.2550E-03   -0.3430E-03   -0.1859E-03
  (  1, 10, 10) (  1,  9,  9) (  1,  8,  5) (  1,  6,  1) (  1,  7,  3)


 OUTPUT CONTROL FOR STRESS PERIOD    1   TIME STEP   1
    PRINT BUDGET
    SAVE BUDGET

            WELLS   PERIOD    1   STEP   1
 WELL      1   LAYER   1   ROW     6   COL     4   RATE    -2.00000    
 WELL      2   LAYER   1   ROW     6   COL     5   RATE    -2.00000    
 WELL      3   LAYER   1   ROW     7   COL     4   RATE    -2.00000    
 WELL      4   LAYER   1   ROW     7   COL     5   RATE    -2.00000    
 WELL      5   LAYER   1   ROW     8   COL     4   RATE    -2.00000    
 WELL      6   LAYER   1   ROW     8   COL     5   RATE    -2.00000    
 WELL      7   LAYER   1   ROW     9   COL     4   RATE    -2.00000    
 WELL      8   LAYER   1   ROW     9   COL     5   RATE    -2.00000    
 WELL      9   LAYER   1   ROW    10   COL     4   RATE    -2.00000    
 WELL     10   LAYER   1   ROW    10   COL     5   RATE    -2.00000    

  HEAD DEP BOUNDS   PERIOD    1   STEP   1
 BOUNDARY      1   LAYER   1   ROW    13   COL     1   RATE   -0.261186    
 BOUNDARY      2   LAYER   1   ROW    14   COL     9   RATE    0.209945    
 UBDSV3 SAVING "           GW ET" ON UNIT  61 AT TIME STEP  1, STRESS PERIOD   1
 UBDSV3 SAVING "    UZF RECHARGE" ON UNIT  61 AT TIME STEP  1, STRESS PERIOD   1
 UBDSV3 SAVING " SURFACE LEAKAGE" ON UNIT  61 AT TIME STEP  1, STRESS PERIOD   1


UNSATURATED ZONE PACKAGE VOLUMETRIC BUDGET FOR  TIME STEP    1 STRESS PERIOD    1
  ------------------------------------------------------------------------------



     CUMULATIVE VOLUMES      L**3       RATES FOR THIS TIME STEP      L**3/T
     ------------------                 ------------------------

           IN:                                      IN:
           ---                                      ---
        INFILTRATION =    22272300.0000          INFILTRATION =           8.4750

          OUT:                                     OUT:
          ----                                     ----
              UZF ET =       0.0000E+00                UZF ET =       0.0000E+00
        UZF RECHARGE =    22272300.0000          UZF RECHARGE =           8.4750

            IN - OUT =       0.0000E+00              IN - OUT =       0.0000E+00

          STORAGE:                                 STORAGE:
          --------                                 --------
      STORAGE CHANGE =       0.0000E+00        STORAGE CHANGE =       0.0000E+00

 PERCENT DISCREPANCY IS DIFFERENCE BETWEEN IN-OUT MINUS CHANGE IN STORAGE
 DIVIDED BY THE AVERAGE OF IN AND OUT TIMES 100

 PERCENT DISCREPANCY =           0.00     PERCENT DISCREPANCY =           0.00









 STREAM LISTING     PERIOD      1   STEP        1

 LAYER ROW COL. STREAM  RCH.  FLOW INTO     FLOW TO   FLOW OUT OF   OVRLND.     DIRECT     STREAM       STREAM     STREAM     STREAM   STREAMBED  STREAMBED
                SEG.NO.  NO.  STRM. RCH.    AQUIFER    STRM. RCH.    RUNOFF     PRECIP       ET          HEAD       DEPTH      WIDTH   CONDCTNC.   GRADIENT

   1    1    1     1     1    2.5000E+01  1.0782E+00   2.3922E+01  0.000E+00  0.000E+00  0.000E+00  1.09422E+03  1.172E+00  1.295E+01  5.830E-01  6.165E-01
   1    2    2     1     2    2.3922E+01  3.1526E+00   2.0769E+01  0.000E+00  0.000E+00  0.000E+00  1.08920E+03  1.139E+00  1.252E+01  8.762E-01  1.199E+00
   1    3    3     1     3    2.0769E+01  2.8941E+00   1.7875E+01  0.000E+00  0.000E+00  0.000E+00  1.08351E+03  1.089E+00  1.180E+01  7.078E-01  1.363E+00
   1    3    4     1     4    1.7875E+01  2.4577E+00   1.5417E+01  0.000E+00  0.000E+00  0.000E+00  1.07845E+03  1.043E+00  1.095E+01  6.079E-01  1.348E+00
   1    4    5     2     1    5.4174E+00  2.6578E+00   2.7596E+00  0.000E+00  0.000E+00  0.000E+00  1.07234E+03  4.075E-01  1.200E+01  7.800E-01  1.136E+00
   1    5    6     2     2    2.7596E+00  1.9487E+00   8.1089E-01  0.000E+00  0.000E+00  0.000E+00  1.06676E+03  2.478E-01  1.200E+01  6.000E-01  1.083E+00
   1    6    6     2     3    8.1089E-01  8.1089E-01   0.0000E+00  0.000E+00  0.000E+00  0.000E+00  1.06183E+03  3.473E-02  1.200E+01  6.000E-01  1.012E+00
   1    7    6     2     4    0.0000E+00  0.0000E+00   0.0000E+00  0.000E+00  0.000E+00  0.000E+00  1.05708E+03  0.000E+00  1.200E+01  6.000E-01  1.000E+00
   1    8    6     2     5    0.0000E+00  0.0000E+00   0.0000E+00  0.000E+00  0.000E+00  0.000E+00  1.05236E+03  0.000E+00  1.200E+01  6.000E-01  1.000E+00
   1    3    5     3     1    1.0000E+01  2.8252E+00   7.1748E+00  0.000E+00  0.000E+00  0.000E+00  1.07555E+03  1.909E+00  9.636E+00  7.227E-01  1.955E+00
   1    3    6     3     2    7.1748E+00  2.2828E+00   4.8921E+00  0.000E+00  0.000E+00  0.000E+00  1.07264E+03  1.727E+00  8.909E+00  6.682E-01  1.708E+00
   1    3    7     3     3    4.8921E+00  1.1634E+00   3.7286E+00  0.000E+00  0.000E+00  0.000E+00  1.06987E+03  1.555E+00  8.218E+00  5.547E-01  1.049E+00
   1    4    8     3     4    3.7286E+00  1.6872E+00   2.0414E+00  0.000E+00  0.000E+00  0.000E+00  1.06682E+03  1.364E+00  7.455E+00  6.709E-01  1.257E+00
   1    5    8     3     5    2.0414E+00  1.5790E+00   4.6247E-01  0.000E+00  0.000E+00  0.000E+00  1.06362E+03  1.164E+00  6.655E+00  4.991E-01  1.582E+00
   1    6    8     3     6    4.6247E-01  4.6247E-01   0.0000E+00  0.000E+00  0.000E+00  0.000E+00  1.06158E+03  0.000E+00  6.145E+00  1.844E-01  1.518E+00
   1    5   10     4     1    1.0000E+01  9.0525E-01   9.0947E+00  0.000E+00  0.000E+00  0.000E+00  1.07835E+03  6.210E-01  1.000E+01  2.500E-01  1.207E+00
   1    5    9     4     2    9.0947E+00  1.7835E+00   7.3113E+00  0.000E+00  0.000E+00  0.000E+00  1.07148E+03  5.670E-01  1.000E+01  5.000E-01  1.189E+00
   1    6    8     4     3    7.3113E+00  1.2257E+00   6.0855E+00  0.000E+00  0.000E+00  0.000E+00  1.06368E+03  5.021E-01  1.000E+01  3.500E-01  1.167E+00
   1    6    8     5     1    6.0855E+00  1.0333E+00   5.0522E+00  0.000E+00  0.000E+00  0.000E+00  1.05855E+03  5.472E-01  1.065E+01  4.259E-01  8.087E-01
   1    7    7     5     2    5.0522E+00  1.5857E+00   3.4666E+00  0.000E+00  0.000E+00  0.000E+00  1.05400E+03  4.982E-01  9.066E+00  4.533E-01  1.166E+00
   1    8    7     5     3    3.4666E+00  8.8887E-01   2.5777E+00  0.000E+00  0.000E+00  0.000E+00  1.04969E+03  4.418E-01  7.379E+00  2.583E-01  1.147E+00
   1    8    6     5     4    2.5777E+00  5.3423E-01   2.0435E+00  0.000E+00  0.000E+00  0.000E+00  1.04665E+03  4.022E-01  6.281E+00  1.570E-01  1.134E+00
   1    9    6     6     1    2.0435E+00  1.9117E+00   1.3180E-01  0.000E+00  0.000E+00  0.000E+00  1.04291E+03  1.862E-01  1.200E+01  6.000E-01  1.062E+00
   1   10    7     6     2    1.3180E-01  1.3180E-01   0.0000E+00  0.000E+00  0.000E+00  0.000E+00  1.03819E+03  1.181E-02  1.200E+01  6.000E-01  1.004E+00
   1   11    7     6     3    0.0000E+00  0.0000E+00   0.0000E+00  0.000E+00  0.000E+00  0.000E+00  1.03364E+03  0.000E+00  1.200E+01  6.000E-01  1.000E+00
   1   12    7     6     4    0.0000E+00  0.0000E+00   0.0000E+00  0.000E+00  0.000E+00  0.000E+00  1.02909E+03  0.000E+00  1.200E+01  6.000E-01  4.159E-01
   1   13    7     6     5    0.0000E+00 -7.8584E-01   7.8584E-01  0.000E+00  0.000E+00  0.000E+00  1.02591E+03  0.000E+00  1.200E+01  2.400E-01 -1.091E+00
   1   14    9     7     1    1.5000E+02  2.1865E+00   1.4781E+02  0.000E+00  0.000E+00  0.000E+00  1.03987E+03  2.285E+00  5.528E+01  5.592E+00  1.303E-01
   1   13    8     7     2    1.4781E+02  3.2091E+00   1.4460E+02  0.000E+00  0.000E+00  0.000E+00  1.03477E+03  2.271E+00  5.522E+01  6.143E+00  1.741E-01
   1   13    7     7     3    1.4460E+02  2.7385E+00   1.4187E+02  0.000E+00  0.000E+00  0.000E+00  1.02967E+03  2.255E+00  5.515E+01  5.577E+00  1.637E-01
   1   13    6     8     1    1.4265E+02  1.0439E+00   1.4161E+02  0.000E+00  0.000E+00  0.000E+00  1.02464E+03  2.760E+00  4.003E+01  4.079E+00  8.531E-02
   1   13    5     8     2    1.4161E+02 -1.7237E+00   1.4333E+02  0.000E+00  0.000E+00  0.000E+00  1.01839E+03  2.763E+00  4.006E+01  4.083E+00 -1.407E-01
   1   13    4     8     3    1.4333E+02 -3.4965E+00   1.4683E+02  0.000E+00  0.000E+00  0.000E+00  1.01216E+03  2.782E+00  4.034E+01  4.110E+00 -2.836E-01
   1   13    3     8     4    1.4683E+02 -3.8389E+00   1.5067E+02  0.000E+00  0.000E+00  0.000E+00  1.00593E+03  2.808E+00  4.072E+01  4.149E+00 -3.084E-01
   1   13    2     8     5    1.5067E+02 -1.9161E+00   1.5258E+02  0.000E+00  0.000E+00  0.000E+00  9.99703E+02  2.828E+00  4.101E+01  4.179E+00 -1.528E-01
   1   13    1     8     6    1.5258E+02 -4.0726E-01   1.5299E+02  0.000E+00  0.000E+00  0.000E+00  9.94711E+02  2.836E+00  4.113E+01  2.515E+00 -5.399E-02



1
  VOLUMETRIC BUDGET FOR ENTIRE MODEL AT END OF TIME STEP  1 IN STRESS PERIOD   1
  ------------------------------------------------------------------------------

     CUMULATIVE VOLUMES      L**3       RATES FOR THIS TIME STEP      L**3/T
     ------------------                 ------------------------

           IN:                                      IN:
           ---                                      ---
             STORAGE =           0.0000               STORAGE =           0.0000
       CONSTANT HEAD =           0.0000         CONSTANT HEAD =           0.0000
               WELLS =           0.0000                 WELLS =           0.0000
     HEAD DEP BOUNDS =      551735.5625       HEAD DEP BOUNDS =           0.2099
        UZF RECHARGE =    22272316.0000          UZF RECHARGE =           8.4750
               GW ET =           0.0000                 GW ET =           0.0000
     SURFACE LEAKAGE =           0.0000       SURFACE LEAKAGE =           0.0000
      STREAM LEAKAGE =   116099856.0000        STREAM LEAKAGE =          44.1780

            TOTAL IN =   138923904.0000              TOTAL IN =          52.8630

          OUT:                                     OUT:
          ----                                     ----
             STORAGE =           0.0000               STORAGE =           0.0000
       CONSTANT HEAD =           0.0000         CONSTANT HEAD =           0.0000
               WELLS =    52560000.0000                 WELLS =          20.0000
     HEAD DEP BOUNDS =      686396.0625       HEAD DEP BOUNDS =           0.2612
        UZF RECHARGE =           0.0000          UZF RECHARGE =           0.0000
               GW ET =    53700772.0000                 GW ET =          20.4341
     SURFACE LEAKAGE =           0.0000       SURFACE LEAKAGE =           0.0000
      STREAM LEAKAGE =    31978642.0000        STREAM LEAKAGE =          12.1684

           TOTAL OUT =   138925808.0000             TOTAL OUT =          52.8637

            IN - OUT =       -1904.0000              IN - OUT =      -7.2479E-04

 PERCENT DISCREPANCY =           0.00     PERCENT DISCREPANCY =           0.00






          TIME SUMMARY AT END OF TIME STEP   1 IN STRESS PERIOD    1
                    SECONDS     MINUTES      HOURS       DAYS        YEARS
                    -----------------------------------------------------------
   TIME STEP LENGTH 2.62800E+06  43800.      730.00      30.417     8.32763E-02
 STRESS PERIOD TIME 2.62800E+06  43800.      730.00      30.417     8.32763E-02
         TOTAL TIME 2.62800E+06  43800.      730.00      30.417     8.32763E-02
1
1
                            STRESS PERIOD NO.    2, LENGTH =   2628000.    
                            -----------------------------------------------

                              NUMBER OF TIME STEPS =    15

                               MULTIPLIER FOR DELT =     1.100

                            INITIAL TIME STEP SIZE =   82713.07    

 WELL NO.  LAYER   ROW   COL   STRESS RATE         
 --------------------------------------------------
      1      1      6      4      -2.000    
      2      1      6      5      -2.000    
      3      1      7      4      -2.000    
      4      1      7      5      -2.000    
      5      1      8      4      -2.000    
      6      1      8      5      -2.000    
      7      1      9      4      -2.000    
      8      1      9      5      -2.000    
      9      1     10      4      -2.000    
     10      1     10      5      -2.000    

     10 WELLS

 REUSING NON-PARAMETER GHB CELLS FROM LAST STRESS PERIOD

      2 GHB CELLS

 REUSING STREAM SEGMENT DATA FROM LAST STRESS PERIOD



            AREAL INFILTRATION RATE
 READING ON UNIT   19 WITH FORMAT: (10F4.0)            

            1           2           3           4           5           6           7           8           9          10
 ........................................................................................................................
   1   8.0000E-09  1.6000E-08   0.000       0.000       0.000       0.000       0.000       0.000       0.000       0.000    
   2   1.6000E-08  8.0000E-09  1.6000E-08   0.000       0.000      6.4000E-08  6.4000E-08  4.0000E-08   0.000       0.000    
   3    0.000      4.0000E-08  8.0000E-09  8.0000E-09  6.4000E-08  6.4000E-08  4.0000E-08  4.0000E-08   0.000       0.000    
   4   6.4000E-08  4.0000E-08  8.0000E-09  8.0000E-09  8.0000E-09  8.0000E-09  8.0000E-09  8.0000E-09  1.6000E-08   0.000    
   5   6.4000E-08  4.0000E-08  8.0000E-09  8.0000E-09  8.0000E-09  8.0000E-09  8.0000E-09  8.0000E-09  8.0000E-09  8.0000E-09
   6   6.4000E-08  4.0000E-08  4.0000E-08  1.6000E-08  1.6000E-08  8.0000E-09  8.0000E-09  8.0000E-09  8.0000E-09  4.0000E-08
   7   6.4000E-08  4.0000E-08  4.0000E-08  1.6000E-08  1.6000E-08  8.0000E-09  8.0000E-09  1.6000E-08  1.6000E-08   0.000    
   8    0.000      4.0000E-08  4.0000E-08  1.6000E-08  1.6000E-08  8.0000E-09  8.0000E-09  1.6000E-08  4.0000E-08   0.000    
   9    0.000      4.0000E-08  4.0000E-08  1.6000E-08  1.6000E-08  8.0000E-09  8.0000E-09  1.6000E-08  4.0000E-08   0.000    
  10    0.000      4.0000E-08  4.0000E-08  1.6000E-08  1.6000E-08  8.0000E-09  8.0000E-09  1.6000E-08  4.0000E-08  6.4000E-08
  11    0.000      8.0000E-09  8.0000E-09  8.0000E-09  8.0000E-09  8.0000E-09  8.0000E-09  1.6000E-08  4.0000E-08   0.000    
  12   8.0000E-09  8.0000E-09  8.0000E-09  8.0000E-09  8.0000E-09  8.0000E-09  8.0000E-09  8.0000E-09  1.6000E-08   0.000    
  13   8.0000E-09  8.0000E-09  1.6000E-08  1.6000E-08  1.6000E-08  1.6000E-08  1.6000E-08  8.0000E-09  8.0000E-09   0.000    
  14    0.000      1.6000E-08  4.0000E-08  4.0000E-08  4.0000E-08  4.0000E-08  4.0000E-08  1.6000E-08  8.0000E-09   0.000    
  15    0.000       0.000      6.4000E-08  6.4000E-08  6.4000E-08  6.4000E-08   0.000       0.000       0.000       0.000    

                  ET RATE =  5.000000E-08

 USING ET EXTINCTION DEPTH FROM PREVIOUS STRESS PERIOD. CURRENT PERIOD IS:       2

 USING EXTINCTION WATER CONTENT FROM PREVIOUS STRESS PERIOD. CURRENT PERIOD IS:       2
 
 SOLVING FOR HEAD 

     6 ITERATIONS FOR TIME STEP   1 IN STRESS PERIOD    2

 MAXIMUM HEAD CHANGE FOR EACH ITERATION:

    HEAD CHANGE   HEAD CHANGE   HEAD CHANGE   HEAD CHANGE   HEAD CHANGE
  LAYER,ROW,COL LAYER,ROW,COL LAYER,ROW,COL LAYER,ROW,COL LAYER,ROW,COL
 ----------------------------------------------------------------------
     0.8174E-02    0.3262E-02    0.1313E-02    0.5164E-03    0.2051E-03
  (  1,  3,  5) (  1,  3,  5) (  1,  3,  5) (  1,  3,  5) (  1,  3,  5)
     0.1371E-03
  (  1,  3,  6)


 OUTPUT CONTROL WAS SPECIFIED FOR A NONEXISTENT TIME STEP
 OR OUTPUT CONTROL DATA ARE NOT ENTERED IN ASCENDING ORDER
 OUTPUT CONTROL STRESS PERIOD    1   TIME STEP   5
 MODEL STRESS PERIOD    2   TIME STEP   1
 APPLYING THE SPECIFIED OUTPUT CONTROL TO THE CURRENT TIME STEP

 OUTPUT CONTROL FOR STRESS PERIOD    2   TIME STEP   1
    PRINT BUDGET
    SAVE BUDGET

            WELLS   PERIOD    2   STEP   1
 WELL      1   LAYER   1   ROW     6   COL     4   RATE    -2.00000    
 WELL      2   LAYER   1   ROW     6   COL     5   RATE    -2.00000    
 WELL      3   LAYER   1   ROW     7   COL     4   RATE    -2.00000    
 WELL      4   LAYER   1   ROW     7   COL     5   RATE    -2.00000    
 WELL      5   LAYER   1   ROW     8   COL     4   RATE    -2.00000    
 WELL      6   LAYER   1   ROW     8   COL     5   RATE    -2.00000    
 WELL      7   LAYER   1   ROW     9   COL     4   RATE    -2.00000    
 WELL      8   LAYER   1   ROW     9   COL     5   RATE    -2.00000    
 WELL      9   LAYER   1   ROW    10   COL     4   RATE    -2.00000    
 WELL     10   LAYER   1   ROW    10   COL     5   RATE    -2.00000    

  HEAD DEP BOUNDS   PERIOD    2   STEP   1
 BOUNDARY      1   LAYER   1   ROW    13   COL     1   RATE   -0.261271    
 BOUNDARY      2   LAYER   1   ROW    14   COL     9   RATE    0.209783    
 UBDSV3 SAVING "           GW ET" ON UNIT  61 AT TIME STEP  1, STRESS PERIOD   2
 UBDSV3 SAVING "    UZF RECHARGE" ON UNIT  61 AT TIME STEP  1, STRESS PERIOD   2
 UBDSV3 SAVING " SURFACE LEAKAGE" ON UNIT  61 AT TIME STEP  1, STRESS PERIOD   2


UNSATURATED ZONE PACKAGE VOLUMETRIC BUDGET FOR  TIME STEP    1 STRESS PERIOD    2
  ------------------------------------------------------------------------------



     CUMULATIVE VOLUMES      L**3       RATES FOR THIS TIME STEP      L**3/T
     ------------------                 ------------------------

           IN:                                      IN:
           ---                                      ---
        INFILTRATION =    27880246.0039          INFILTRATION =          67.8000

          OUT:                                     OUT:
          ----                                     ----
              UZF ET =    10303229.1282                UZF ET =         124.5659
        UZF RECHARGE =    23076953.4658          UZF RECHARGE =           9.7283

            IN - OUT =    -5499936.5901              IN - OUT =         -66.4942

          STORAGE:                                 STORAGE:
          --------                                 --------
      STORAGE CHANGE =    -5498801.9682        STORAGE CHANGE =         -66.4804

 PERCENT DISCREPANCY IS DIFFERENCE BETWEEN IN-OUT MINUS CHANGE IN STORAGE
 DIVIDED BY THE AVERAGE OF IN AND OUT TIMES 100

 PERCENT DISCREPANCY =           0.00     PERCENT DISCREPANCY =          -0.01









 STREAM LISTING     PERIOD      2   STEP        1

 LAYER ROW COL. STREAM  RCH.  FLOW INTO     FLOW TO   FLOW OUT OF   OVRLND.     DIRECT     STREAM       STREAM     STREAM     STREAM   STREAMBED  STREAMBED
                SEG.NO.  NO.  STRM. RCH.    AQUIFER    STRM. RCH.    RUNOFF     PRECIP       ET          HEAD       DEPTH      WIDTH   CONDCTNC.   GRADIENT

   1    1    1     1     1    2.5000E+01  1.0761E+00   2.3924E+01  0.000E+00  0.000E+00  0.000E+00  1.09422E+03  1.172E+00  1.295E+01  5.830E-01  6.153E-01
   1    2    2     1     2    2.3924E+01  3.1479E+00   2.0776E+01  0.000E+00  0.000E+00  0.000E+00  1.08920E+03  1.139E+00  1.252E+01  8.762E-01  1.197E+00
   1    3    3     1     3    2.0776E+01  2.8946E+00   1.7881E+01  0.000E+00  0.000E+00  0.000E+00  1.08351E+03  1.089E+00  1.180E+01  7.079E-01  1.363E+00
   1    3    4     1     4    1.7881E+01  2.4582E+00   1.5423E+01  0.000E+00  0.000E+00  0.000E+00  1.07845E+03  1.043E+00  1.095E+01  6.080E-01  1.348E+00
   1    4    5     2     1    5.4232E+00  2.6581E+00   2.7651E+00  0.000E+00  0.000E+00  0.000E+00  1.07234E+03  4.078E-01  1.200E+01  7.800E-01  1.136E+00
   1    5    6     2     2    2.7651E+00  1.9490E+00   8.1613E-01  0.000E+00  0.000E+00  0.000E+00  1.06676E+03  2.483E-01  1.200E+01  6.000E-01  1.083E+00
   1    6    6     2     3    8.1613E-01  8.1613E-01   0.0000E+00  0.000E+00  0.000E+00  0.000E+00  1.06183E+03  3.486E-02  1.200E+01  6.000E-01  1.012E+00
   1    7    6     2     4    0.0000E+00  0.0000E+00   0.0000E+00  0.000E+00  0.000E+00  0.000E+00  1.05708E+03  0.000E+00  1.200E+01  6.000E-01  1.000E+00
   1    8    6     2     5    0.0000E+00  0.0000E+00   0.0000E+00  0.000E+00  0.000E+00  0.000E+00  1.05236E+03  0.000E+00  1.200E+01  6.000E-01  1.000E+00
   1    3    5     3     1    1.0000E+01  2.8252E+00   7.1748E+00  0.000E+00  0.000E+00  0.000E+00  1.07555E+03  1.909E+00  9.636E+00  7.227E-01  1.955E+00
   1    3    6     3     2    7.1748E+00  2.2742E+00   4.9006E+00  0.000E+00  0.000E+00  0.000E+00  1.07264E+03  1.727E+00  8.909E+00  6.682E-01  1.702E+00
   1    3    7     3     3    4.9006E+00  1.1574E+00   3.7433E+00  0.000E+00  0.000E+00  0.000E+00  1.06987E+03  1.555E+00  8.218E+00  5.547E-01  1.043E+00
   1    4    8     3     4    3.7433E+00  1.6802E+00   2.0630E+00  0.000E+00  0.000E+00  0.000E+00  1.06682E+03  1.364E+00  7.455E+00  6.709E-01  1.252E+00
   1    5    8     3     5    2.0630E+00  1.5790E+00   4.8405E-01  0.000E+00  0.000E+00  0.000E+00  1.06362E+03  1.164E+00  6.655E+00  4.991E-01  1.582E+00
   1    6    8     3     6    4.8405E-01  4.8405E-01   0.0000E+00  0.000E+00  0.000E+00  0.000E+00  1.06158E+03  0.000E+00  6.145E+00  1.844E-01  1.518E+00
   1    5   10     4     1    1.0000E+01  9.0525E-01   9.0947E+00  0.000E+00  0.000E+00  0.000E+00  1.07835E+03  6.210E-01  1.000E+01  2.500E-01  1.207E+00
   1    5    9     4     2    9.0947E+00  1.7835E+00   7.3113E+00  0.000E+00  0.000E+00  0.000E+00  1.07148E+03  5.670E-01  1.000E+01  5.000E-01  1.189E+00
   1    6    8     4     3    7.3113E+00  1.2257E+00   6.0855E+00  0.000E+00  0.000E+00  0.000E+00  1.06368E+03  5.021E-01  1.000E+01  3.500E-01  1.167E+00
   1    6    8     5     1    6.0855E+00  1.0309E+00   5.0547E+00  0.000E+00  0.000E+00  0.000E+00  1.05855E+03  5.472E-01  1.065E+01  4.260E-01  8.067E-01
   1    7    7     5     2    5.0547E+00  1.5862E+00   3.4685E+00  0.000E+00  0.000E+00  0.000E+00  1.05400E+03  4.983E-01  9.068E+00  4.534E-01  1.166E+00
   1    8    7     5     3    3.4685E+00  8.8919E-01   2.5793E+00  0.000E+00  0.000E+00  0.000E+00  1.04969E+03  4.419E-01  7.381E+00  2.583E-01  1.147E+00
   1    8    6     5     4    2.5793E+00  5.3444E-01   2.0449E+00  0.000E+00  0.000E+00  0.000E+00  1.04665E+03  4.023E-01  6.283E+00  1.571E-01  1.134E+00
   1    9    6     6     1    2.0449E+00  1.9118E+00   1.3312E-01  0.000E+00  0.000E+00  0.000E+00  1.04291E+03  1.863E-01  1.200E+01  6.000E-01  1.062E+00
   1   10    7     6     2    1.3312E-01  1.3312E-01   0.0000E+00  0.000E+00  0.000E+00  0.000E+00  1.03819E+03  1.188E-02  1.200E+01  6.000E-01  1.004E+00
   1   11    7     6     3    0.0000E+00  0.0000E+00   0.0000E+00  0.000E+00  0.000E+00  0.000E+00  1.03364E+03  0.000E+00  1.200E+01  6.000E-01  1.000E+00
   1   12    7     6     4    0.0000E+00  0.0000E+00   0.0000E+00  0.000E+00  0.000E+00  0.000E+00  1.02909E+03  0.000E+00  1.200E+01  6.000E-01  4.144E-01
   1   13    7     6     5    0.0000E+00 -7.8652E-01   7.8652E-01  0.000E+00  0.000E+00  0.000E+00  1.02591E+03  0.000E+00  1.200E+01  2.400E-01 -1.092E+00
   1   14    9     7     1    1.5000E+02  2.1630E+00   1.4784E+02  0.000E+00  0.000E+00  0.000E+00  1.03987E+03  2.286E+00  5.528E+01  5.592E+00  1.289E-01
   1   13    8     7     2    1.4784E+02  3.1879E+00   1.4465E+02  0.000E+00  0.000E+00  0.000E+00  1.03477E+03  2.271E+00  5.522E+01  6.143E+00  1.730E-01
   1   13    7     7     3    1.4465E+02  2.7244E+00   1.4192E+02  0.000E+00  0.000E+00  0.000E+00  1.02967E+03  2.255E+00  5.515E+01  5.577E+00  1.628E-01
   1   13    6     8     1    1.4271E+02  1.0343E+00   1.4168E+02  0.000E+00  0.000E+00  0.000E+00  1.02464E+03  2.761E+00  4.003E+01  4.080E+00  8.451E-02
   1   13    5     8     2    1.4168E+02 -1.7262E+00   1.4340E+02  0.000E+00  0.000E+00  0.000E+00  1.01839E+03  2.763E+00  4.007E+01  4.083E+00 -1.409E-01
   1   13    4     8     3    1.4340E+02 -3.4986E+00   1.4690E+02  0.000E+00  0.000E+00  0.000E+00  1.01216E+03  2.782E+00  4.034E+01  4.111E+00 -2.837E-01
   1   13    3     8     4    1.4690E+02 -3.8414E+00   1.5074E+02  0.000E+00  0.000E+00  0.000E+00  1.00593E+03  2.809E+00  4.072E+01  4.150E+00 -3.086E-01
   1   13    2     8     5    1.5074E+02 -1.9300E+00   1.5267E+02  0.000E+00  0.000E+00  0.000E+00  9.99704E+02  2.829E+00  4.102E+01  4.180E+00 -1.539E-01
   1   13    1     8     6    1.5267E+02 -4.1143E-01   1.5308E+02  0.000E+00  0.000E+00  0.000E+00  9.94712E+02  2.837E+00  4.114E+01  2.515E+00 -5.453E-02



1
  VOLUMETRIC BUDGET FOR ENTIRE MODEL AT END OF TIME STEP  1 IN STRESS PERIOD   2
  ------------------------------------------------------------------------------

     CUMULATIVE VOLUMES      L**3       RATES FOR THIS TIME STEP      L**3/T
     ------------------                 ------------------------

           IN:                                      IN:
           ---                                      ---
             STORAGE =        2286.9275               STORAGE =       2.7649E-02
       CONSTANT HEAD =           0.0000         CONSTANT HEAD =           0.0000
               WELLS =           0.0000                 WELLS =           0.0000
     HEAD DEP BOUNDS =      569087.3750       HEAD DEP BOUNDS =           0.2098
        UZF RECHARGE =    23076970.0000          UZF RECHARGE =           9.7282
               GW ET =           0.0000                 GW ET =           0.0000
     SURFACE LEAKAGE =           0.0000       SURFACE LEAKAGE =           0.0000
      STREAM LEAKAGE =   119748288.0000        STREAM LEAKAGE =          44.1095

            TOTAL IN =   143396640.0000              TOTAL IN =          54.0752

          OUT:                                     OUT:
          ----                                     ----
             STORAGE =      669109.9375               STORAGE =           8.0895
       CONSTANT HEAD =           0.0000         CONSTANT HEAD =           0.0000
               WELLS =    54214260.0000                 WELLS =          20.0000
     HEAD DEP BOUNDS =      708006.6250       HEAD DEP BOUNDS =           0.2613
        UZF RECHARGE =           0.0000          UZF RECHARGE =           0.0000
               GW ET =    54820732.0000                 GW ET =          13.5403
     SURFACE LEAKAGE =           0.0000       SURFACE LEAKAGE =           0.0000
      STREAM LEAKAGE =    32987254.0000        STREAM LEAKAGE =          12.1941

           TOTAL OUT =   143399360.0000             TOTAL OUT =          54.0852

            IN - OUT =       -2720.0000              IN - OUT =      -9.9907E-03

 PERCENT DISCREPANCY =           0.00     PERCENT DISCREPANCY =          -0.02






          TIME SUMMARY AT END OF TIME STEP   1 IN STRESS PERIOD    2
                    SECONDS     MINUTES      HOURS       DAYS        YEARS
                    -----------------------------------------------------------
   TIME STEP LENGTH  82713.      1378.6      22.976     0.95733     2.62102E-03
 STRESS PERIOD TIME  82713.      1378.6      22.976     0.95733     2.62102E-03
         TOTAL TIME 2.71071E+06  45179.      752.98      31.374     8.58973E-02
1
 
 SOLVING FOR HEAD 
     6 ITERATIONS FOR TIME STEP   2 IN STRESS PERIOD    2

 MAXIMUM HEAD CHANGE FOR EACH ITERATION:

    HEAD CHANGE   HEAD CHANGE   HEAD CHANGE   HEAD CHANGE   HEAD CHANGE
  LAYER,ROW,COL LAYER,ROW,COL LAYER,ROW,COL LAYER,ROW,COL LAYER,ROW,COL
 ----------------------------------------------------------------------
     0.8655E-02    0.3407E-02    0.1351E-02    0.5489E-03    0.2023E-03
  (  1,  3,  5) (  1,  3,  5) (  1,  3,  5) (  1,  3,  5) (  1,  3,  6)
     0.1105E-03
  (  1, 13,  1)


 OUTPUT CONTROL WAS SPECIFIED FOR A NONEXISTENT TIME STEP
 OR OUTPUT CONTROL DATA ARE NOT ENTERED IN ASCENDING ORDER
 OUTPUT CONTROL STRESS PERIOD    1   TIME STEP  10
 MODEL STRESS PERIOD    2   TIME STEP   2
 APPLYING THE SPECIFIED OUTPUT CONTROL TO THE CURRENT TIME STEP

 OUTPUT CONTROL FOR STRESS PERIOD    2   TIME STEP   2
    PRINT BUDGET
    SAVE BUDGET

            WELLS   PERIOD    2   STEP   2
 WELL      1   LAYER   1   ROW     6   COL     4   RATE    -2.00000    
 WELL      2   LAYER   1   ROW     6   COL     5   RATE    -2.00000    
 WELL      3   LAYER   1   ROW     7   COL     4   RATE    -2.00000    
 WELL      4   LAYER   1   ROW     7   COL     5   RATE    -2.00000    
 WELL      5   LAYER   1   ROW     8   COL     4   RATE    -2.00000    
 WELL      6   LAYER   1   ROW     8   COL     5   RATE    -2.00000    
 WELL      7   LAYER   1   ROW     9   COL     4   RATE    -2.00000    
 WELL      8   LAYER   1   ROW     9   COL     5   RATE    -2.00000    
 WELL      9   LAYER   1   ROW    10   COL     4   RATE    -2.00000    
 WELL     10   LAYER   1   ROW    10   COL     5   RATE    -2.00000    

  HEAD DEP BOUNDS   PERIOD    2   STEP   2
 BOUNDARY      1   LAYER   1   ROW    13   COL     1   RATE   -0.261361    
 BOUNDARY      2   LAYER   1   ROW    14   COL     9   RATE    0.209627    
 UBDSV3 SAVING "           GW ET" ON UNIT  61 AT TIME STEP  2, STRESS PERIOD   2
 UBDSV3 SAVING "    UZF RECHARGE" ON UNIT  61 AT TIME STEP  2, STRESS PERIOD   2
 UBDSV3 SAVING " SURFACE LEAKAGE" ON UNIT  61 AT TIME STEP  2, STRESS PERIOD   2


UNSATURATED ZONE PACKAGE VOLUMETRIC BUDGET FOR  TIME STEP    2 STRESS PERIOD    2
  ------------------------------------------------------------------------------



     CUMULATIVE VOLUMES      L**3       RATES FOR THIS TIME STEP      L**3/T
     ------------------                 ------------------------

           IN:                                      IN:
           ---                                      ---
        INFILTRATION =    34048987.2402          INFILTRATION =          67.8000

          OUT:                                     OUT:
          ----                                     ----
              UZF ET =    21635550.2178                UZF ET =         124.5524
        UZF RECHARGE =    23952167.8938          UZF RECHARGE =           9.6194

            IN - OUT =   -11538730.8713              IN - OUT =         -66.3718

          STORAGE:                                 STORAGE:
          --------                                 --------
      STORAGE CHANGE =   -11536293.0563        STORAGE CHANGE =         -66.3574

 PERCENT DISCREPANCY IS DIFFERENCE BETWEEN IN-OUT MINUS CHANGE IN STORAGE
 DIVIDED BY THE AVERAGE OF IN AND OUT TIMES 100

 PERCENT DISCREPANCY =           0.00     PERCENT DISCREPANCY =          -0.01









 STREAM LISTING     PERIOD      2   STEP        2

 LAYER ROW COL. STREAM  RCH.  FLOW INTO     FLOW TO   FLOW OUT OF   OVRLND.     DIRECT     STREAM       STREAM     STREAM     STREAM   STREAMBED  STREAMBED
                SEG.NO.  NO.  STRM. RCH.    AQUIFER    STRM. RCH.    RUNOFF     PRECIP       ET          HEAD       DEPTH      WIDTH   CONDCTNC.   GRADIENT

   1    1    1     1     1    2.5000E+01  1.0738E+00   2.3926E+01  0.000E+00  0.000E+00  0.000E+00  1.09422E+03  1.172E+00  1.296E+01  5.830E-01  6.140E-01
   1    2    2     1     2    2.3926E+01  3.1430E+00   2.0783E+01  0.000E+00  0.000E+00  0.000E+00  1.08920E+03  1.139E+00  1.252E+01  8.763E-01  1.196E+00
   1    3    3     1     3    2.0783E+01  2.8952E+00   1.7888E+01  0.000E+00  0.000E+00  0.000E+00  1.08351E+03  1.089E+00  1.180E+01  7.080E-01  1.363E+00
   1    3    4     1     4    1.7888E+01  2.4587E+00   1.5429E+01  0.000E+00  0.000E+00  0.000E+00  1.07845E+03  1.043E+00  1.096E+01  6.081E-01  1.348E+00
   1    4    5     2     1    5.4292E+00  2.6584E+00   2.7709E+00  0.000E+00  0.000E+00  0.000E+00  1.07234E+03  4.081E-01  1.200E+01  7.800E-01  1.136E+00
   1    5    6     2     2    2.7709E+00  1.9492E+00   8.2164E-01  0.000E+00  0.000E+00  0.000E+00  1.06676E+03  2.487E-01  1.200E+01  6.000E-01  1.083E+00
   1    6    6     2     3    8.2164E-01  8.2164E-01   0.0000E+00  0.000E+00  0.000E+00  0.000E+00  1.06183E+03  3.500E-02  1.200E+01  6.000E-01  1.012E+00
   1    7    6     2     4    0.0000E+00  0.0000E+00   0.0000E+00  0.000E+00  0.000E+00  0.000E+00  1.05708E+03  0.000E+00  1.200E+01  6.000E-01  1.000E+00
   1    8    6     2     5    0.0000E+00  0.0000E+00   0.0000E+00  0.000E+00  0.000E+00  0.000E+00  1.05236E+03  0.000E+00  1.200E+01  6.000E-01  1.000E+00
   1    3    5     3     1    1.0000E+01  2.8252E+00   7.1748E+00  0.000E+00  0.000E+00  0.000E+00  1.07555E+03  1.909E+00  9.636E+00  7.227E-01  1.955E+00
   1    3    6     3     2    7.1748E+00  2.2654E+00   4.9094E+00  0.000E+00  0.000E+00  0.000E+00  1.07264E+03  1.727E+00  8.909E+00  6.682E-01  1.695E+00
   1    3    7     3     3    4.9094E+00  1.1511E+00   3.7583E+00  0.000E+00  0.000E+00  0.000E+00  1.06987E+03  1.555E+00  8.218E+00  5.547E-01  1.038E+00
   1    4    8     3     4    3.7583E+00  1.6729E+00   2.0854E+00  0.000E+00  0.000E+00  0.000E+00  1.06682E+03  1.364E+00  7.455E+00  6.709E-01  1.247E+00
   1    5    8     3     5    2.0854E+00  1.5790E+00   5.0640E-01  0.000E+00  0.000E+00  0.000E+00  1.06362E+03  1.164E+00  6.655E+00  4.991E-01  1.582E+00
   1    6    8     3     6    5.0640E-01  5.0640E-01   0.0000E+00  0.000E+00  0.000E+00  0.000E+00  1.06158E+03  0.000E+00  6.145E+00  1.844E-01  1.518E+00
   1    5   10     4     1    1.0000E+01  9.0525E-01   9.0947E+00  0.000E+00  0.000E+00  0.000E+00  1.07835E+03  6.210E-01  1.000E+01  2.500E-01  1.207E+00
   1    5    9     4     2    9.0947E+00  1.7835E+00   7.3113E+00  0.000E+00  0.000E+00  0.000E+00  1.07148E+03  5.670E-01  1.000E+01  5.000E-01  1.189E+00
   1    6    8     4     3    7.3113E+00  1.2257E+00   6.0855E+00  0.000E+00  0.000E+00  0.000E+00  1.06368E+03  5.021E-01  1.000E+01  3.500E-01  1.167E+00
   1    6    8     5     1    6.0855E+00  1.0281E+00   5.0574E+00  0.000E+00  0.000E+00  0.000E+00  1.05855E+03  5.473E-01  1.065E+01  4.260E-01  8.045E-01
   1    7    7     5     2    5.0574E+00  1.5868E+00   3.4706E+00  0.000E+00  0.000E+00  0.000E+00  1.05400E+03  4.984E-01  9.071E+00  4.536E-01  1.166E+00
   1    8    7     5     3    3.4706E+00  8.8955E-01   2.5811E+00  0.000E+00  0.000E+00  0.000E+00  1.04969E+03  4.420E-01  7.384E+00  2.584E-01  1.147E+00
   1    8    6     5     4    2.5811E+00  5.3468E-01   2.0464E+00  0.000E+00  0.000E+00  0.000E+00  1.04665E+03  4.024E-01  6.286E+00  1.571E-01  1.134E+00
   1    9    6     6     1    2.0464E+00  1.9119E+00   1.3455E-01  0.000E+00  0.000E+00  0.000E+00  1.04291E+03  1.864E-01  1.200E+01  6.000E-01  1.062E+00
   1   10    7     6     2    1.3455E-01  1.3455E-01   0.0000E+00  0.000E+00  0.000E+00  0.000E+00  1.03819E+03  1.195E-02  1.200E+01  6.000E-01  1.004E+00
   1   11    7     6     3    0.0000E+00  0.0000E+00   0.0000E+00  0.000E+00  0.000E+00  0.000E+00  1.03364E+03  0.000E+00  1.200E+01  6.000E-01  1.000E+00
   1   12    7     6     4    0.0000E+00  0.0000E+00   0.0000E+00  0.000E+00  0.000E+00  0.000E+00  1.02909E+03  0.000E+00  1.200E+01  6.000E-01  4.128E-01
   1   13    7     6     5    0.0000E+00 -7.8720E-01   7.8720E-01  0.000E+00  0.000E+00  0.000E+00  1.02591E+03  0.000E+00  1.200E+01  2.400E-01 -1.093E+00
   1   14    9     7     1    1.5000E+02  2.1404E+00   1.4786E+02  0.000E+00  0.000E+00  0.000E+00  1.03987E+03  2.286E+00  5.529E+01  5.592E+00  1.276E-01
   1   13    8     7     2    1.4786E+02  3.1673E+00   1.4469E+02  0.000E+00  0.000E+00  0.000E+00  1.03477E+03  2.271E+00  5.522E+01  6.143E+00  1.718E-01
   1   13    7     7     3    1.4469E+02  2.7101E+00   1.4198E+02  0.000E+00  0.000E+00  0.000E+00  1.02967E+03  2.256E+00  5.515E+01  5.577E+00  1.620E-01
   1   13    6     8     1    1.4277E+02  1.0246E+00   1.4174E+02  0.000E+00  0.000E+00  0.000E+00  1.02464E+03  2.761E+00  4.004E+01  4.080E+00  8.370E-02
   1   13    5     8     2    1.4174E+02 -1.7294E+00   1.4347E+02  0.000E+00  0.000E+00  0.000E+00  1.01839E+03  2.764E+00  4.008E+01  4.084E+00 -1.412E-01
   1   13    4     8     3    1.4347E+02 -3.5003E+00   1.4697E+02  0.000E+00  0.000E+00  0.000E+00  1.01216E+03  2.783E+00  4.035E+01  4.112E+00 -2.837E-01
   1   13    3     8     4    1.4697E+02 -3.8442E+00   1.5082E+02  0.000E+00  0.000E+00  0.000E+00  1.00593E+03  2.809E+00  4.073E+01  4.151E+00 -3.087E-01
   1   13    2     8     5    1.5082E+02 -1.9438E+00   1.5276E+02  0.000E+00  0.000E+00  0.000E+00  9.99704E+02  2.829E+00  4.103E+01  4.181E+00 -1.550E-01
   1   13    1     8     6    1.5276E+02 -4.1582E-01   1.5318E+02  0.000E+00  0.000E+00  0.000E+00  9.94713E+02  2.838E+00  4.115E+01  2.516E+00 -5.510E-02



1
  VOLUMETRIC BUDGET FOR ENTIRE MODEL AT END OF TIME STEP  2 IN STRESS PERIOD   2
  ------------------------------------------------------------------------------

     CUMULATIVE VOLUMES      L**3       RATES FOR THIS TIME STEP      L**3/T
     ------------------                 ------------------------

           IN:                                      IN:
           ---                                      ---
             STORAGE =        4558.2051               STORAGE =       2.4963E-02
       CONSTANT HEAD =           0.0000         CONSTANT HEAD =           0.0000
               WELLS =           0.0000                 WELLS =           0.0000
     HEAD DEP BOUNDS =      588160.1875       HEAD DEP BOUNDS =           0.2096
        UZF RECHARGE =    23952184.0000          UZF RECHARGE =           9.6194
               GW ET =           0.0000                 GW ET =           0.0000
     SURFACE LEAKAGE =           0.0000       SURFACE LEAKAGE =           0.0000
      STREAM LEAKAGE =   123755456.0000        STREAM LEAKAGE =          44.0424

            TOTAL IN =   148300352.0000              TOTAL IN =          53.8964

          OUT:                                     OUT:
          ----                                     ----
             STORAGE =     1383998.7500               STORAGE =           7.8573
       CONSTANT HEAD =           0.0000         CONSTANT HEAD =           0.0000
               WELLS =    56033948.0000                 WELLS =          20.0000
     HEAD DEP BOUNDS =      731786.3750       HEAD DEP BOUNDS =           0.2614
        UZF RECHARGE =           0.0000          UZF RECHARGE =           0.0000
               GW ET =    56053924.0000                 GW ET =          13.5539
     SURFACE LEAKAGE =           0.0000       SURFACE LEAKAGE =           0.0000
      STREAM LEAKAGE =    34099144.0000        STREAM LEAKAGE =          12.2207

           TOTAL OUT =   148302816.0000             TOTAL OUT =          53.8932

            IN - OUT =       -2464.0000              IN - OUT =       3.2158E-03

 PERCENT DISCREPANCY =           0.00     PERCENT DISCREPANCY =           0.01






          TIME SUMMARY AT END OF TIME STEP   2 IN STRESS PERIOD    2
                    SECONDS     MINUTES      HOURS       DAYS        YEARS
                    -----------------------------------------------------------
   TIME STEP LENGTH  90984.      1516.4      25.273      1.0531     2.88312E-03
 STRESS PERIOD TIME 1.73697E+05  2895.0      48.249      2.0104     5.50414E-03
         TOTAL TIME 2.80170E+06  46695.      778.25      32.427     8.87804E-02
1
 
 SOLVING FOR HEAD 
     6 ITERATIONS FOR TIME STEP   3 IN STRESS PERIOD    2

 MAXIMUM HEAD CHANGE FOR EACH ITERATION:

    HEAD CHANGE   HEAD CHANGE   HEAD CHANGE   HEAD CHANGE   HEAD CHANGE
  LAYER,ROW,COL LAYER,ROW,COL LAYER,ROW,COL LAYER,ROW,COL LAYER,ROW,COL
 ----------------------------------------------------------------------
     0.9125E-02    0.3568E-02    0.1387E-02    0.5227E-03    0.2268E-03
  (  1, 12,  8) (  1,  3,  5) (  1,  3,  5) (  1,  3,  5) (  1,  3,  5)
     0.4534E-04
  (  1,  3,  5)


 OUTPUT CONTROL WAS SPECIFIED FOR A NONEXISTENT TIME STEP
 OR OUTPUT CONTROL DATA ARE NOT ENTERED IN ASCENDING ORDER
 OUTPUT CONTROL STRESS PERIOD    1   TIME STEP  15
 MODEL STRESS PERIOD    2   TIME STEP   3
 APPLYING THE SPECIFIED OUTPUT CONTROL TO THE CURRENT TIME STEP

 OUTPUT CONTROL FOR STRESS PERIOD    2   TIME STEP   3
    PRINT BUDGET
    PRINT HEAD FOR ALL LAYERS
    SAVE HEAD FOR ALL LAYERS
    SAVE BUDGET

            WELLS   PERIOD    2   STEP   3
 WELL      1   LAYER   1   ROW     6   COL     4   RATE    -2.00000    
 WELL      2   LAYER   1   ROW     6   COL     5   RATE    -2.00000    
 WELL      3   LAYER   1   ROW     7   COL     4   RATE    -2.00000    
 WELL      4   LAYER   1   ROW     7   COL     5   RATE    -2.00000    
 WELL      5   LAYER   1   ROW     8   COL     4   RATE    -2.00000    
 WELL      6   LAYER   1   ROW     8   COL     5   RATE    -2.00000    
 WELL      7   LAYER   1   ROW     9   COL     4   RATE    -2.00000    
 WELL      8   LAYER   1   ROW     9   COL     5   RATE    -2.00000    
 WELL      9   LAYER   1   ROW    10   COL     4   RATE    -2.00000    
 WELL     10   LAYER   1   ROW    10   COL     5   RATE    -2.00000    

  HEAD DEP BOUNDS   PERIOD    2   STEP   3
 BOUNDARY      1   LAYER   1   ROW    13   COL     1   RATE   -0.261453    
 BOUNDARY      2   LAYER   1   ROW    14   COL     9   RATE    0.209475    
 UBDSV3 SAVING "           GW ET" ON UNIT  61 AT TIME STEP  3, STRESS PERIOD   2
 UBDSV3 SAVING "    UZF RECHARGE" ON UNIT  61 AT TIME STEP  3, STRESS PERIOD   2
 UBDSV3 SAVING " SURFACE LEAKAGE" ON UNIT  61 AT TIME STEP  3, STRESS PERIOD   2


UNSATURATED ZONE PACKAGE VOLUMETRIC BUDGET FOR  TIME STEP    3 STRESS PERIOD    2
  ------------------------------------------------------------------------------



     CUMULATIVE VOLUMES      L**3       RATES FOR THIS TIME STEP      L**3/T
     ------------------                 ------------------------

           IN:                                      IN:
           ---                                      ---
        INFILTRATION =    40834602.5391          INFILTRATION =          67.8000

          OUT:                                     OUT:
          ----                                     ----
              UZF ET =    34099670.0671                UZF ET =         124.5381
        UZF RECHARGE =    24905127.9216          UZF RECHARGE =           9.5217

            IN - OUT =   -18170195.4497              IN - OUT =         -66.2598

          STORAGE:                                 STORAGE:
          --------                                 --------
      STORAGE CHANGE =   -18166245.0594        STORAGE CHANGE =         -66.2447

 PERCENT DISCREPANCY IS DIFFERENCE BETWEEN IN-OUT MINUS CHANGE IN STORAGE
 DIVIDED BY THE AVERAGE OF IN AND OUT TIMES 100

 PERCENT DISCREPANCY =           0.00     PERCENT DISCREPANCY =          -0.01









 STREAM LISTING     PERIOD      2   STEP        3

 LAYER ROW COL. STREAM  RCH.  FLOW INTO     FLOW TO   FLOW OUT OF   OVRLND.     DIRECT     STREAM       STREAM     STREAM     STREAM   STREAMBED  STREAMBED
                SEG.NO.  NO.  STRM. RCH.    AQUIFER    STRM. RCH.    RUNOFF     PRECIP       ET          HEAD       DEPTH      WIDTH   CONDCTNC.   GRADIENT

   1    1    1     1     1    2.5000E+01  1.0714E+00   2.3929E+01  0.000E+00  0.000E+00  0.000E+00  1.09422E+03  1.172E+00  1.296E+01  5.830E-01  6.126E-01
   1    2    2     1     2    2.3929E+01  3.1378E+00   2.0791E+01  0.000E+00  0.000E+00  0.000E+00  1.08920E+03  1.139E+00  1.252E+01  8.764E-01  1.193E+00
   1    3    3     1     3    2.0791E+01  2.8958E+00   1.7895E+01  0.000E+00  0.000E+00  0.000E+00  1.08351E+03  1.089E+00  1.180E+01  7.081E-01  1.363E+00
   1    3    4     1     4    1.7895E+01  2.4593E+00   1.5436E+01  0.000E+00  0.000E+00  0.000E+00  1.07845E+03  1.043E+00  1.096E+01  6.082E-01  1.348E+00
   1    4    5     2     1    5.4357E+00  2.6586E+00   2.7770E+00  0.000E+00  0.000E+00  0.000E+00  1.07234E+03  4.085E-01  1.200E+01  7.800E-01  1.136E+00
   1    5    6     2     2    2.7770E+00  1.9495E+00   8.2746E-01  0.000E+00  0.000E+00  0.000E+00  1.06676E+03  2.492E-01  1.200E+01  6.000E-01  1.083E+00
   1    6    6     2     3    8.2746E-01  8.2746E-01   0.0000E+00  0.000E+00  0.000E+00  0.000E+00  1.06183E+03  3.515E-02  1.200E+01  6.000E-01  1.012E+00
   1    7    6     2     4    0.0000E+00  0.0000E+00   0.0000E+00  0.000E+00  0.000E+00  0.000E+00  1.05708E+03  0.000E+00  1.200E+01  6.000E-01  1.000E+00
   1    8    6     2     5    0.0000E+00  0.0000E+00   0.0000E+00  0.000E+00  0.000E+00  0.000E+00  1.05236E+03  0.000E+00  1.200E+01  6.000E-01  1.000E+00
   1    3    5     3     1    1.0000E+01  2.8252E+00   7.1748E+00  0.000E+00  0.000E+00  0.000E+00  1.07555E+03  1.909E+00  9.636E+00  7.227E-01  1.955E+00
   1    3    6     3     2    7.1748E+00  2.2567E+00   4.9181E+00  0.000E+00  0.000E+00  0.000E+00  1.07264E+03  1.727E+00  8.909E+00  6.682E-01  1.689E+00
   1    3    7     3     3    4.9181E+00  1.1445E+00   3.7735E+00  0.000E+00  0.000E+00  0.000E+00  1.06987E+03  1.555E+00  8.218E+00  5.547E-01  1.032E+00
   1    4    8     3     4    3.7735E+00  1.6653E+00   2.1082E+00  0.000E+00  0.000E+00  0.000E+00  1.06682E+03  1.364E+00  7.455E+00  6.709E-01  1.241E+00
   1    5    8     3     5    2.1082E+00  1.5790E+00   5.2921E-01  0.000E+00  0.000E+00  0.000E+00  1.06362E+03  1.164E+00  6.655E+00  4.991E-01  1.582E+00
   1    6    8     3     6    5.2921E-01  5.2921E-01   0.0000E+00  0.000E+00  0.000E+00  0.000E+00  1.06158E+03  0.000E+00  6.145E+00  1.844E-01  1.518E+00
   1    5   10     4     1    1.0000E+01  9.0525E-01   9.0947E+00  0.000E+00  0.000E+00  0.000E+00  1.07835E+03  6.210E-01  1.000E+01  2.500E-01  1.207E+00
   1    5    9     4     2    9.0947E+00  1.7835E+00   7.3113E+00  0.000E+00  0.000E+00  0.000E+00  1.07148E+03  5.670E-01  1.000E+01  5.000E-01  1.189E+00
   1    6    8     4     3    7.3113E+00  1.2257E+00   6.0855E+00  0.000E+00  0.000E+00  0.000E+00  1.06368E+03  5.021E-01  1.000E+01  3.500E-01  1.167E+00
   1    6    8     5     1    6.0855E+00  1.0251E+00   5.0605E+00  0.000E+00  0.000E+00  0.000E+00  1.05855E+03  5.473E-01  1.065E+01  4.261E-01  8.019E-01
   1    7    7     5     2    5.0605E+00  1.5874E+00   3.4730E+00  0.000E+00  0.000E+00  0.000E+00  1.05400E+03  4.985E-01  9.075E+00  4.537E-01  1.166E+00
   1    8    7     5     3    3.4730E+00  8.8997E-01   2.5831E+00  0.000E+00  0.000E+00  0.000E+00  1.04969E+03  4.421E-01  7.387E+00  2.586E-01  1.147E+00
   1    8    6     5     4    2.5831E+00  5.3496E-01   2.0481E+00  0.000E+00  0.000E+00  0.000E+00  1.04665E+03  4.025E-01  6.289E+00  1.572E-01  1.134E+00
   1    9    6     6     1    2.0481E+00  1.9120E+00   1.3615E-01  0.000E+00  0.000E+00  0.000E+00  1.04291E+03  1.866E-01  1.200E+01  6.000E-01  1.062E+00
   1   10    7     6     2    1.3615E-01  1.3615E-01   0.0000E+00  0.000E+00  0.000E+00  0.000E+00  1.03819E+03  1.204E-02  1.200E+01  6.000E-01  1.004E+00
   1   11    7     6     3    0.0000E+00  0.0000E+00   0.0000E+00  0.000E+00  0.000E+00  0.000E+00  1.03364E+03  0.000E+00  1.200E+01  6.000E-01  1.000E+00
   1   12    7     6     4    0.0000E+00  0.0000E+00   0.0000E+00  0.000E+00  0.000E+00  0.000E+00  1.02909E+03  0.000E+00  1.200E+01  6.000E-01  4.110E-01
   1   13    7     6     5    0.0000E+00 -7.8786E-01   7.8786E-01  0.000E+00  0.000E+00  0.000E+00  1.02591E+03  0.000E+00  1.200E+01  2.400E-01 -1.094E+00
   1   14    9     7     1    1.5000E+02  2.1183E+00   1.4788E+02  0.000E+00  0.000E+00  0.000E+00  1.03987E+03  2.286E+00  5.529E+01  5.592E+00  1.263E-01
   1   13    8     7     2    1.4788E+02  3.1471E+00   1.4473E+02  0.000E+00  0.000E+00  0.000E+00  1.03477E+03  2.272E+00  5.522E+01  6.144E+00  1.708E-01
   1   13    7     7     3    1.4473E+02  2.6962E+00   1.4204E+02  0.000E+00  0.000E+00  0.000E+00  1.02968E+03  2.256E+00  5.515E+01  5.577E+00  1.611E-01
   1   13    6     8     1    1.4283E+02  1.0151E+00   1.4181E+02  0.000E+00  0.000E+00  0.000E+00  1.02464E+03  2.762E+00  4.005E+01  4.081E+00  8.291E-02
   1   13    5     8     2    1.4181E+02 -1.7331E+00   1.4354E+02  0.000E+00  0.000E+00  0.000E+00  1.01839E+03  2.764E+00  4.008E+01  4.085E+00 -1.414E-01
   1   13    4     8     3    1.4354E+02 -3.5026E+00   1.4705E+02  0.000E+00  0.000E+00  0.000E+00  1.01216E+03  2.783E+00  4.036E+01  4.113E+00 -2.839E-01
   1   13    3     8     4    1.4705E+02 -3.8469E+00   1.5089E+02  0.000E+00  0.000E+00  0.000E+00  1.00593E+03  2.810E+00  4.074E+01  4.151E+00 -3.089E-01
   1   13    2     8     5    1.5089E+02 -1.9583E+00   1.5285E+02  0.000E+00  0.000E+00  0.000E+00  9.99705E+02  2.830E+00  4.103E+01  4.182E+00 -1.561E-01
   1   13    1     8     6    1.5285E+02 -4.2039E-01   1.5327E+02  0.000E+00  0.000E+00  0.000E+00  9.94713E+02  2.838E+00  4.115E+01  2.516E+00 -5.569E-02



1
              HEAD IN LAYER   1 AT END OF TIME STEP   3 IN STRESS PERIOD    2
  ---------------------------------------------------------------------------

           1       2       3       4       5       6       7       8       9      10
 ...................................................................................
   1  1092.38 1088.63 6999.00 6999.00 6999.00 6999.00 6999.00 6999.00 6999.00 6999.00
   2  1089.24 1085.62 1078.96 6999.00 6999.00 1071.60 1070.86 1070.38 6999.00 6999.00
   3  6999.00 1077.28 1074.00 1069.65 1070.00 1069.26 1067.81 1067.80 6999.00 6999.00
   4  1067.82 1068.30 1066.38 1062.66 1061.49 1060.29 1061.15 1064.34 1063.70 6999.00
   5  1063.67 1061.22 1058.40 1056.11 1055.88 1056.66 1056.75 1059.02 1062.67 1065.22
   6  1058.99 1055.26 1051.82 1049.36 1049.78 1051.90 1053.54 1056.14 1059.18 1063.61
   7  1055.33 1049.58 1045.87 1043.49 1044.29 1046.82 1049.65 1052.33 1054.05 6999.00
   8  6999.00 1042.24 1039.80 1037.85 1038.93 1041.67 1043.84 1046.89 1049.11 6999.00
   9  6999.00 1035.30 1033.84 1032.56 1033.95 1036.84 1038.03 1040.43 1043.70 6999.00
  10  6999.00 1028.29 1027.98 1027.92 1029.55 1031.98 1033.33 1035.83 1039.94 1044.37
  11  6999.00 1019.58 1020.94 1024.00 1026.08 1028.32 1029.88 1032.57 1036.22 6999.00
  12  1001.15 1008.78 1013.89 1018.58 1022.19 1025.44 1027.86 1030.81 1034.76 6999.00
  13   994.88 1000.17 1006.86 1013.01 1018.81 1024.39 1029.19 1034.26 1036.35 6999.00
  14  6999.00 1005.81 1011.47 1016.19 1021.22 1026.05 1030.48 1035.34 1039.49 6999.00
  15  6999.00 6999.00 1018.83 1021.82 1025.56 1028.54 6999.00 6999.00 6999.00 6999.00

 HEAD WILL BE SAVED ON UNIT   58 AT END OF TIME STEP   3, STRESS PERIOD    2
1
  VOLUMETRIC BUDGET FOR ENTIRE MODEL AT END OF TIME STEP  3 IN STRESS PERIOD   2
  ------------------------------------------------------------------------------

     CUMULATIVE VOLUMES      L**3       RATES FOR THIS TIME STEP      L**3/T
     ------------------                 ------------------------

           IN:                                      IN:
           ---                                      ---
             STORAGE =        5474.4907               STORAGE =       9.1553E-03
       CONSTANT HEAD =           0.0000         CONSTANT HEAD =           0.0000
               WELLS =           0.0000                 WELLS =           0.0000
     HEAD DEP BOUNDS =      609125.0625       HEAD DEP BOUNDS =           0.2095
        UZF RECHARGE =    24905144.0000          UZF RECHARGE =           9.5217
               GW ET =           0.0000                 GW ET =           0.0000
     SURFACE LEAKAGE =           0.0000       SURFACE LEAKAGE =           0.0000
      STREAM LEAKAGE =   128156768.0000        STREAM LEAKAGE =          43.9767

            TOTAL IN =   153676512.0000              TOTAL IN =          53.7171

          OUT:                                     OUT:
          ----                                     ----
             STORAGE =     2149225.0000               STORAGE =           7.6459
       CONSTANT HEAD =           0.0000         CONSTANT HEAD =           0.0000
               WELLS =    58035604.0000                 WELLS =          20.0000
     HEAD DEP BOUNDS =      757953.3125       HEAD DEP BOUNDS =           0.2615
        UZF RECHARGE =           0.0000          UZF RECHARGE =           0.0000
               GW ET =    57411860.0000                 GW ET =          13.5681
     SURFACE LEAKAGE =           0.0000       SURFACE LEAKAGE =           0.0000
      STREAM LEAKAGE =    35325076.0000        STREAM LEAKAGE =          12.2492

           TOTAL OUT =   153679712.0000             TOTAL OUT =          53.7247

            IN - OUT =       -3200.0000              IN - OUT =      -7.6332E-03

 PERCENT DISCREPANCY =           0.00     PERCENT DISCREPANCY =          -0.01






          TIME SUMMARY AT END OF TIME STEP   3 IN STRESS PERIOD    2
                    SECONDS     MINUTES      HOURS       DAYS        YEARS
                    -----------------------------------------------------------
   TIME STEP LENGTH 1.00083E+05  1668.0      27.801      1.1584     3.17143E-03
 STRESS PERIOD TIME 2.73780E+05  4563.0      76.050      3.1688     8.67557E-03
         TOTAL TIME 2.90178E+06  48363.      806.05      33.585     9.19519E-02
1
 
 SOLVING FOR HEAD 
     5 ITERATIONS FOR TIME STEP   4 IN STRESS PERIOD    2

 MAXIMUM HEAD CHANGE FOR EACH ITERATION:

    HEAD CHANGE   HEAD CHANGE   HEAD CHANGE   HEAD CHANGE   HEAD CHANGE
  LAYER,ROW,COL LAYER,ROW,COL LAYER,ROW,COL LAYER,ROW,COL LAYER,ROW,COL
 ----------------------------------------------------------------------
     0.9843E-02    0.3617E-02    0.1462E-02    0.5619E-03    0.1794E-03
  (  1, 12,  8) (  1,  3,  5) (  1,  3,  5) (  1,  3,  5) (  1,  3,  5)


 OUTPUT CONTROL WAS SPECIFIED FOR A NONEXISTENT TIME STEP
 OR OUTPUT CONTROL DATA ARE NOT ENTERED IN ASCENDING ORDER
 OUTPUT CONTROL STRESS PERIOD    2   TIME STEP   1
 MODEL STRESS PERIOD    2   TIME STEP   4
 APPLYING THE SPECIFIED OUTPUT CONTROL TO THE CURRENT TIME STEP

 OUTPUT CONTROL FOR STRESS PERIOD    2   TIME STEP   4
    PRINT BUDGET
    SAVE BUDGET

            WELLS   PERIOD    2   STEP   4
 WELL      1   LAYER   1   ROW     6   COL     4   RATE    -2.00000    
 WELL      2   LAYER   1   ROW     6   COL     5   RATE    -2.00000    
 WELL      3   LAYER   1   ROW     7   COL     4   RATE    -2.00000    
 WELL      4   LAYER   1   ROW     7   COL     5   RATE    -2.00000    
 WELL      5   LAYER   1   ROW     8   COL     4   RATE    -2.00000    
 WELL      6   LAYER   1   ROW     8   COL     5   RATE    -2.00000    
 WELL      7   LAYER   1   ROW     9   COL     4   RATE    -2.00000    
 WELL      8   LAYER   1   ROW     9   COL     5   RATE    -2.00000    
 WELL      9   LAYER   1   ROW    10   COL     4   RATE    -2.00000    
 WELL     10   LAYER   1   ROW    10   COL     5   RATE    -2.00000    

  HEAD DEP BOUNDS   PERIOD    2   STEP   4
 BOUNDARY      1   LAYER   1   ROW    13   COL     1   RATE   -0.261549    
 BOUNDARY      2   LAYER   1   ROW    14   COL     9   RATE    0.209326    
 UBDSV3 SAVING "           GW ET" ON UNIT  61 AT TIME STEP  4, STRESS PERIOD   2
 UBDSV3 SAVING "    UZF RECHARGE" ON UNIT  61 AT TIME STEP  4, STRESS PERIOD   2
 UBDSV3 SAVING " SURFACE LEAKAGE" ON UNIT  61 AT TIME STEP  4, STRESS PERIOD   2


UNSATURATED ZONE PACKAGE VOLUMETRIC BUDGET FOR  TIME STEP    4 STRESS PERIOD    2
  ------------------------------------------------------------------------------



     CUMULATIVE VOLUMES      L**3       RATES FOR THIS TIME STEP      L**3/T
     ------------------                 ------------------------

           IN:                                      IN:
           ---                                      ---
        INFILTRATION =    48298778.8984          INFILTRATION =          67.8000

          OUT:                                     OUT:
          ----                                     ----
              UZF ET =    47808537.5891                UZF ET =         124.5229
        UZF RECHARGE =    25938897.7842          UZF RECHARGE =           9.3901

            IN - OUT =   -25448656.4749              IN - OUT =         -66.1131

          STORAGE:                                 STORAGE:
          --------                                 --------
      STORAGE CHANGE =   -25442965.3428        STORAGE CHANGE =         -66.0973

 PERCENT DISCREPANCY IS DIFFERENCE BETWEEN IN-OUT MINUS CHANGE IN STORAGE
 DIVIDED BY THE AVERAGE OF IN AND OUT TIMES 100

 PERCENT DISCREPANCY =           0.00     PERCENT DISCREPANCY =          -0.01









 STREAM LISTING     PERIOD      2   STEP        4

 LAYER ROW COL. STREAM  RCH.  FLOW INTO     FLOW TO   FLOW OUT OF   OVRLND.     DIRECT     STREAM       STREAM     STREAM     STREAM   STREAMBED  STREAMBED
                SEG.NO.  NO.  STRM. RCH.    AQUIFER    STRM. RCH.    RUNOFF     PRECIP       ET          HEAD       DEPTH      WIDTH   CONDCTNC.   GRADIENT

   1    1    1     1     1    2.5000E+01  1.0688E+00   2.3931E+01  0.000E+00  0.000E+00  0.000E+00  1.09422E+03  1.172E+00  1.296E+01  5.830E-01  6.111E-01
   1    2    2     1     2    2.3931E+01  3.1324E+00   2.0799E+01  0.000E+00  0.000E+00  0.000E+00  1.08920E+03  1.139E+00  1.252E+01  8.765E-01  1.191E+00
   1    3    3     1     3    2.0799E+01  2.8965E+00   1.7902E+01  0.000E+00  0.000E+00  0.000E+00  1.08351E+03  1.090E+00  1.180E+01  7.083E-01  1.363E+00
   1    3    4     1     4    1.7902E+01  2.4599E+00   1.5442E+01  0.000E+00  0.000E+00  0.000E+00  1.07845E+03  1.044E+00  1.096E+01  6.084E-01  1.348E+00
   1    4    5     2     1    5.4424E+00  2.6590E+00   2.7835E+00  0.000E+00  0.000E+00  0.000E+00  1.07234E+03  4.089E-01  1.200E+01  7.800E-01  1.136E+00
   1    5    6     2     2    2.7835E+00  1.9499E+00   8.3359E-01  0.000E+00  0.000E+00  0.000E+00  1.06676E+03  2.498E-01  1.200E+01  6.000E-01  1.083E+00
   1    6    6     2     3    8.3359E-01  8.3359E-01   0.0000E+00  0.000E+00  0.000E+00  0.000E+00  1.06183E+03  3.531E-02  1.200E+01  6.000E-01  1.012E+00
   1    7    6     2     4    0.0000E+00  0.0000E+00   0.0000E+00  0.000E+00  0.000E+00  0.000E+00  1.05708E+03  0.000E+00  1.200E+01  6.000E-01  1.000E+00
   1    8    6     2     5    0.0000E+00  0.0000E+00   0.0000E+00  0.000E+00  0.000E+00  0.000E+00  1.05236E+03  0.000E+00  1.200E+01  6.000E-01  1.000E+00
   1    3    5     3     1    1.0000E+01  2.8252E+00   7.1748E+00  0.000E+00  0.000E+00  0.000E+00  1.07555E+03  1.909E+00  9.636E+00  7.227E-01  1.955E+00
   1    3    6     3     2    7.1748E+00  2.2480E+00   4.9268E+00  0.000E+00  0.000E+00  0.000E+00  1.07264E+03  1.727E+00  8.909E+00  6.682E-01  1.682E+00
   1    3    7     3     3    4.9268E+00  1.1381E+00   3.7887E+00  0.000E+00  0.000E+00  0.000E+00  1.06987E+03  1.555E+00  8.218E+00  5.547E-01  1.026E+00
   1    4    8     3     4    3.7887E+00  1.6575E+00   2.1313E+00  0.000E+00  0.000E+00  0.000E+00  1.06682E+03  1.364E+00  7.455E+00  6.709E-01  1.235E+00
   1    5    8     3     5    2.1313E+00  1.5790E+00   5.5232E-01  0.000E+00  0.000E+00  0.000E+00  1.06362E+03  1.164E+00  6.655E+00  4.991E-01  1.582E+00
   1    6    8     3     6    5.5232E-01  5.5232E-01   0.0000E+00  0.000E+00  0.000E+00  0.000E+00  1.06158E+03  0.000E+00  6.145E+00  1.844E-01  1.518E+00
   1    5   10     4     1    1.0000E+01  9.0525E-01   9.0947E+00  0.000E+00  0.000E+00  0.000E+00  1.07835E+03  6.210E-01  1.000E+01  2.500E-01  1.207E+00
   1    5    9     4     2    9.0947E+00  1.7835E+00   7.3113E+00  0.000E+00  0.000E+00  0.000E+00  1.07148E+03  5.670E-01  1.000E+01  5.000E-01  1.189E+00
   1    6    8     4     3    7.3113E+00  1.2257E+00   6.0855E+00  0.000E+00  0.000E+00  0.000E+00  1.06368E+03  5.021E-01  1.000E+01  3.500E-01  1.167E+00
   1    6    8     5     1    6.0855E+00  1.0217E+00   5.0639E+00  0.000E+00  0.000E+00  0.000E+00  1.05855E+03  5.474E-01  1.065E+01  4.262E-01  7.991E-01
   1    7    7     5     2    5.0639E+00  1.5881E+00   3.4757E+00  0.000E+00  0.000E+00  0.000E+00  1.05400E+03  4.986E-01  9.079E+00  4.539E-01  1.166E+00
   1    8    7     5     3    3.4757E+00  8.9042E-01   2.5853E+00  0.000E+00  0.000E+00  0.000E+00  1.04969E+03  4.422E-01  7.391E+00  2.587E-01  1.147E+00
   1    8    6     5     4    2.5853E+00  5.3526E-01   2.0500E+00  0.000E+00  0.000E+00  0.000E+00  1.04665E+03  4.026E-01  6.292E+00  1.573E-01  1.134E+00
   1    9    6     6     1    2.0500E+00  1.9121E+00   1.3796E-01  0.000E+00  0.000E+00  0.000E+00  1.04291E+03  1.868E-01  1.200E+01  6.000E-01  1.062E+00
   1   10    7     6     2    1.3796E-01  1.3796E-01   0.0000E+00  0.000E+00  0.000E+00  0.000E+00  1.03819E+03  1.213E-02  1.200E+01  6.000E-01  1.004E+00
   1   11    7     6     3    0.0000E+00  0.0000E+00   0.0000E+00  0.000E+00  0.000E+00  0.000E+00  1.03364E+03  0.000E+00  1.200E+01  6.000E-01  1.000E+00
   1   12    7     6     4    0.0000E+00  0.0000E+00   0.0000E+00  0.000E+00  0.000E+00  0.000E+00  1.02909E+03  0.000E+00  1.200E+01  6.000E-01  4.090E-01
   1   13    7     6     5    0.0000E+00 -7.8848E-01   7.8848E-01  0.000E+00  0.000E+00  0.000E+00  1.02591E+03  0.000E+00  1.200E+01  2.400E-01 -1.095E+00
   1   14    9     7     1    1.5000E+02  2.0967E+00   1.4790E+02  0.000E+00  0.000E+00  0.000E+00  1.03987E+03  2.286E+00  5.529E+01  5.592E+00  1.250E-01
   1   13    8     7     2    1.4790E+02  3.1280E+00   1.4478E+02  0.000E+00  0.000E+00  0.000E+00  1.03477E+03  2.272E+00  5.522E+01  6.144E+00  1.697E-01
   1   13    7     7     3    1.4478E+02  2.6834E+00   1.4209E+02  0.000E+00  0.000E+00  0.000E+00  1.02968E+03  2.256E+00  5.515E+01  5.577E+00  1.604E-01
   1   13    6     8     1    1.4288E+02  1.0053E+00   1.4188E+02  0.000E+00  0.000E+00  0.000E+00  1.02464E+03  2.762E+00  4.005E+01  4.082E+00  8.210E-02
   1   13    5     8     2    1.4188E+02 -1.7367E+00   1.4361E+02  0.000E+00  0.000E+00  0.000E+00  1.01839E+03  2.765E+00  4.009E+01  4.085E+00 -1.417E-01
   1   13    4     8     3    1.4361E+02 -3.5050E+00   1.4712E+02  0.000E+00  0.000E+00  0.000E+00  1.01216E+03  2.784E+00  4.037E+01  4.113E+00 -2.840E-01
   1   13    3     8     4    1.4712E+02 -3.8501E+00   1.5097E+02  0.000E+00  0.000E+00  0.000E+00  1.00594E+03  2.810E+00  4.075E+01  4.152E+00 -3.091E-01
   1   13    2     8     5    1.5097E+02 -1.9719E+00   1.5294E+02  0.000E+00  0.000E+00  0.000E+00  9.99706E+02  2.831E+00  4.104E+01  4.182E+00 -1.572E-01
   1   13    1     8     6    1.5294E+02 -4.2530E-01   1.5336E+02  0.000E+00  0.000E+00  0.000E+00  9.94714E+02  2.839E+00  4.116E+01  2.517E+00 -5.633E-02



1
  VOLUMETRIC BUDGET FOR ENTIRE MODEL AT END OF TIME STEP  4 IN STRESS PERIOD   2
  ------------------------------------------------------------------------------

     CUMULATIVE VOLUMES      L**3       RATES FOR THIS TIME STEP      L**3/T
     ------------------                 ------------------------

           IN:                                      IN:
           ---                                      ---
             STORAGE =        6240.5054               STORAGE =       6.9580E-03
       CONSTANT HEAD =           0.0000         CONSTANT HEAD =           0.0000
               WELLS =           0.0000                 WELLS =           0.0000
     HEAD DEP BOUNDS =      632169.9375       HEAD DEP BOUNDS =           0.2093
        UZF RECHARGE =    25938914.0000          UZF RECHARGE =           9.3901
               GW ET =           0.0000                 GW ET =           0.0000
     SURFACE LEAKAGE =           0.0000       SURFACE LEAKAGE =           0.0000
      STREAM LEAKAGE =   132991232.0000        STREAM LEAKAGE =          43.9133

            TOTAL IN =   159568560.0000              TOTAL IN =          53.5197

          OUT:                                     OUT:
          ----                                     ----
             STORAGE =     2961304.5000               STORAGE =           7.3764
       CONSTANT HEAD =           0.0000         CONSTANT HEAD =           0.0000
               WELLS =    60237424.0000                 WELLS =          20.0000
     HEAD DEP BOUNDS =      786747.5625       HEAD DEP BOUNDS =           0.2615
        UZF RECHARGE =           0.0000          UZF RECHARGE =           0.0000
               GW ET =    58907224.0000                 GW ET =          13.5830
     SURFACE LEAKAGE =           0.0000       SURFACE LEAKAGE =           0.0000
      STREAM LEAKAGE =    36676716.0000        STREAM LEAKAGE =          12.2775

           TOTAL OUT =   159569424.0000             TOTAL OUT =          53.4984

            IN - OUT =        -864.0000              IN - OUT =       2.1297E-02

 PERCENT DISCREPANCY =           0.00     PERCENT DISCREPANCY =           0.04






          TIME SUMMARY AT END OF TIME STEP   4 IN STRESS PERIOD    2
                    SECONDS     MINUTES      HOURS       DAYS        YEARS
                    -----------------------------------------------------------
   TIME STEP LENGTH 1.10091E+05  1834.9      30.581      1.2742     3.48858E-03
 STRESS PERIOD TIME 3.83871E+05  6397.9      106.63      4.4430     1.21642E-02
         TOTAL TIME 3.01187E+06  50198.      836.63      34.860     9.54404E-02
1
 
 SOLVING FOR HEAD 
     5 ITERATIONS FOR TIME STEP   5 IN STRESS PERIOD    2

 MAXIMUM HEAD CHANGE FOR EACH ITERATION:

    HEAD CHANGE   HEAD CHANGE   HEAD CHANGE   HEAD CHANGE   HEAD CHANGE
  LAYER,ROW,COL LAYER,ROW,COL LAYER,ROW,COL LAYER,ROW,COL LAYER,ROW,COL
 ----------------------------------------------------------------------
     0.1042E-01    0.3772E-02    0.1420E-02    0.5781E-03    0.1891E-03
  (  1, 12,  8) (  1,  3,  5) (  1,  3,  5) (  1,  3,  5) (  1,  3,  5)


 OUTPUT CONTROL FOR STRESS PERIOD    2   TIME STEP   5
    PRINT BUDGET
    SAVE BUDGET

            WELLS   PERIOD    2   STEP   5
 WELL      1   LAYER   1   ROW     6   COL     4   RATE    -2.00000    
 WELL      2   LAYER   1   ROW     6   COL     5   RATE    -2.00000    
 WELL      3   LAYER   1   ROW     7   COL     4   RATE    -2.00000    
 WELL      4   LAYER   1   ROW     7   COL     5   RATE    -2.00000    
 WELL      5   LAYER   1   ROW     8   COL     4   RATE    -2.00000    
 WELL      6   LAYER   1   ROW     8   COL     5   RATE    -2.00000    
 WELL      7   LAYER   1   ROW     9   COL     4   RATE    -2.00000    
 WELL      8   LAYER   1   ROW     9   COL     5   RATE    -2.00000    
 WELL      9   LAYER   1   ROW    10   COL     4   RATE    -2.00000    
 WELL     10   LAYER   1   ROW    10   COL     5   RATE    -2.00000    

  HEAD DEP BOUNDS   PERIOD    2   STEP   5
 BOUNDARY      1   LAYER   1   ROW    13   COL     1   RATE   -0.261648    
 BOUNDARY      2   LAYER   1   ROW    14   COL     9   RATE    0.209184    
 UBDSV3 SAVING "           GW ET" ON UNIT  61 AT TIME STEP  5, STRESS PERIOD   2
 UBDSV3 SAVING "    UZF RECHARGE" ON UNIT  61 AT TIME STEP  5, STRESS PERIOD   2
 UBDSV3 SAVING " SURFACE LEAKAGE" ON UNIT  61 AT TIME STEP  5, STRESS PERIOD   2


UNSATURATED ZONE PACKAGE VOLUMETRIC BUDGET FOR  TIME STEP    5 STRESS PERIOD    2
  ------------------------------------------------------------------------------



     CUMULATIVE VOLUMES      L**3       RATES FOR THIS TIME STEP      L**3/T
     ------------------                 ------------------------

           IN:                                      IN:
           ---                                      ---
        INFILTRATION =    56509372.9551          INFILTRATION =          67.8000

          OUT:                                     OUT:
          ----                                     ----
              UZF ET =    62886377.3386                UZF ET =         124.5071
        UZF RECHARGE =    27060798.7825          UZF RECHARGE =           9.2642

            IN - OUT =   -33437803.1660              IN - OUT =         -65.9714

          STORAGE:                                 STORAGE:
          --------                                 --------
      STORAGE CHANGE =   -33430125.7664        STORAGE CHANGE =         -65.9550

 PERCENT DISCREPANCY IS DIFFERENCE BETWEEN IN-OUT MINUS CHANGE IN STORAGE
 DIVIDED BY THE AVERAGE OF IN AND OUT TIMES 100

 PERCENT DISCREPANCY =           0.00     PERCENT DISCREPANCY =          -0.01









 STREAM LISTING     PERIOD      2   STEP        5

 LAYER ROW COL. STREAM  RCH.  FLOW INTO     FLOW TO   FLOW OUT OF   OVRLND.     DIRECT     STREAM       STREAM     STREAM     STREAM   STREAMBED  STREAMBED
                SEG.NO.  NO.  STRM. RCH.    AQUIFER    STRM. RCH.    RUNOFF     PRECIP       ET          HEAD       DEPTH      WIDTH   CONDCTNC.   GRADIENT

   1    1    1     1     1    2.5000E+01  1.0661E+00   2.3934E+01  0.000E+00  0.000E+00  0.000E+00  1.09422E+03  1.172E+00  1.296E+01  5.830E-01  6.095E-01
   1    2    2     1     2    2.3934E+01  3.1268E+00   2.0807E+01  0.000E+00  0.000E+00  0.000E+00  1.08920E+03  1.140E+00  1.252E+01  8.765E-01  1.189E+00
   1    3    3     1     3    2.0807E+01  2.8972E+00   1.7910E+01  0.000E+00  0.000E+00  0.000E+00  1.08351E+03  1.090E+00  1.181E+01  7.084E-01  1.363E+00
   1    3    4     1     4    1.7910E+01  2.4605E+00   1.5449E+01  0.000E+00  0.000E+00  0.000E+00  1.07845E+03  1.044E+00  1.096E+01  6.085E-01  1.348E+00
   1    4    5     2     1    5.4493E+00  2.6593E+00   2.7901E+00  0.000E+00  0.000E+00  0.000E+00  1.07234E+03  4.093E-01  1.200E+01  7.800E-01  1.136E+00
   1    5    6     2     2    2.7901E+00  1.9502E+00   8.3990E-01  0.000E+00  0.000E+00  0.000E+00  1.06676E+03  2.503E-01  1.200E+01  6.000E-01  1.083E+00
   1    6    6     2     3    8.3990E-01  8.3990E-01   0.0000E+00  0.000E+00  0.000E+00  0.000E+00  1.06183E+03  3.547E-02  1.200E+01  6.000E-01  1.012E+00
   1    7    6     2     4    0.0000E+00  0.0000E+00   0.0000E+00  0.000E+00  0.000E+00  0.000E+00  1.05708E+03  0.000E+00  1.200E+01  6.000E-01  1.000E+00
   1    8    6     2     5    0.0000E+00  0.0000E+00   0.0000E+00  0.000E+00  0.000E+00  0.000E+00  1.05236E+03  0.000E+00  1.200E+01  6.000E-01  1.000E+00
   1    3    5     3     1    1.0000E+01  2.8252E+00   7.1748E+00  0.000E+00  0.000E+00  0.000E+00  1.07555E+03  1.909E+00  9.636E+00  7.227E-01  1.955E+00
   1    3    6     3     2    7.1748E+00  2.2395E+00   4.9354E+00  0.000E+00  0.000E+00  0.000E+00  1.07264E+03  1.727E+00  8.909E+00  6.682E-01  1.676E+00
   1    3    7     3     3    4.9354E+00  1.1316E+00   3.8038E+00  0.000E+00  0.000E+00  0.000E+00  1.06987E+03  1.555E+00  8.218E+00  5.547E-01  1.020E+00
   1    4    8     3     4    3.8038E+00  1.6495E+00   2.1543E+00  0.000E+00  0.000E+00  0.000E+00  1.06682E+03  1.364E+00  7.455E+00  6.709E-01  1.229E+00
   1    5    8     3     5    2.1543E+00  1.5790E+00   5.7531E-01  0.000E+00  0.000E+00  0.000E+00  1.06362E+03  1.164E+00  6.655E+00  4.991E-01  1.582E+00
   1    6    8     3     6    5.7531E-01  5.5980E-01   1.5512E-02  0.000E+00  0.000E+00  0.000E+00  1.06158E+03  1.036E+00  6.145E+00  1.844E-01  1.518E+00
   1    5   10     4     1    1.0000E+01  9.0525E-01   9.0947E+00  0.000E+00  0.000E+00  0.000E+00  1.07835E+03  6.210E-01  1.000E+01  2.500E-01  1.207E+00
   1    5    9     4     2    9.0947E+00  1.7835E+00   7.3113E+00  0.000E+00  0.000E+00  0.000E+00  1.07148E+03  5.670E-01  1.000E+01  5.000E-01  1.189E+00
   1    6    8     4     3    7.3113E+00  1.2257E+00   6.0855E+00  0.000E+00  0.000E+00  0.000E+00  1.06368E+03  5.021E-01  1.000E+01  3.500E-01  1.167E+00
   1    6    8     5     1    6.1011E+00  1.0198E+00   5.0812E+00  0.000E+00  0.000E+00  0.000E+00  1.05855E+03  5.480E-01  1.067E+01  4.269E-01  7.963E-01
   1    7    7     5     2    5.0812E+00  1.5919E+00   3.4894E+00  0.000E+00  0.000E+00  0.000E+00  1.05400E+03  4.992E-01  9.098E+00  4.549E-01  1.166E+00
   1    8    7     5     3    3.4894E+00  8.9276E-01   2.5966E+00  0.000E+00  0.000E+00  0.000E+00  1.04969E+03  4.429E-01  7.409E+00  2.593E-01  1.148E+00
   1    8    6     5     4    2.5966E+00  5.3680E-01   2.0598E+00  0.000E+00  0.000E+00  0.000E+00  1.04665E+03  4.032E-01  6.309E+00  1.577E-01  1.134E+00
   1    9    6     6     1    2.0598E+00  1.9127E+00   1.4715E-01  0.000E+00  0.000E+00  0.000E+00  1.04292E+03  1.878E-01  1.200E+01  6.000E-01  1.063E+00
   1   10    7     6     2    1.4715E-01  1.4715E-01   0.0000E+00  0.000E+00  0.000E+00  0.000E+00  1.03819E+03  1.260E-02  1.200E+01  6.000E-01  1.004E+00
   1   11    7     6     3    0.0000E+00  0.0000E+00   0.0000E+00  0.000E+00  0.000E+00  0.000E+00  1.03364E+03  0.000E+00  1.200E+01  6.000E-01  1.000E+00
   1   12    7     6     4    0.0000E+00  0.0000E+00   0.0000E+00  0.000E+00  0.000E+00  0.000E+00  1.02909E+03  0.000E+00  1.200E+01  6.000E-01  4.069E-01
   1   13    7     6     5    0.0000E+00 -7.8907E-01   7.8907E-01  0.000E+00  0.000E+00  0.000E+00  1.02591E+03  0.000E+00  1.200E+01  2.400E-01 -1.096E+00
   1   14    9     7     1    1.5000E+02  2.0762E+00   1.4792E+02  0.000E+00  0.000E+00  0.000E+00  1.03987E+03  2.286E+00  5.529E+01  5.592E+00  1.238E-01
   1   13    8     7     2    1.4792E+02  3.1096E+00   1.4481E+02  0.000E+00  0.000E+00  0.000E+00  1.03477E+03  2.272E+00  5.522E+01  6.144E+00  1.687E-01
   1   13    7     7     3    1.4481E+02  2.6709E+00   1.4214E+02  0.000E+00  0.000E+00  0.000E+00  1.02968E+03  2.256E+00  5.515E+01  5.578E+00  1.596E-01
   1   13    6     8     1    1.4293E+02  9.9554E-01   1.4194E+02  0.000E+00  0.000E+00  0.000E+00  1.02464E+03  2.763E+00  4.006E+01  4.082E+00  8.129E-02
   1   13    5     8     2    1.4194E+02 -1.7416E+00   1.4368E+02  0.000E+00  0.000E+00  0.000E+00  1.01839E+03  2.765E+00  4.010E+01  4.086E+00 -1.421E-01
   1   13    4     8     3    1.4368E+02 -3.5073E+00   1.4719E+02  0.000E+00  0.000E+00  0.000E+00  1.01216E+03  2.784E+00  4.037E+01  4.114E+00 -2.842E-01
   1   13    3     8     4    1.4719E+02 -3.8531E+00   1.5104E+02  0.000E+00  0.000E+00  0.000E+00  1.00594E+03  2.811E+00  4.075E+01  4.153E+00 -3.093E-01
   1   13    2     8     5    1.5104E+02 -1.9851E+00   1.5302E+02  0.000E+00  0.000E+00  0.000E+00  9.99706E+02  2.831E+00  4.105E+01  4.183E+00 -1.582E-01
   1   13    1     8     6    1.5302E+02 -4.3041E-01   1.5345E+02  0.000E+00  0.000E+00  0.000E+00  9.94714E+02  2.839E+00  4.117E+01  2.517E+00 -5.699E-02



1
  VOLUMETRIC BUDGET FOR ENTIRE MODEL AT END OF TIME STEP  5 IN STRESS PERIOD   2
  ------------------------------------------------------------------------------

     CUMULATIVE VOLUMES      L**3       RATES FOR THIS TIME STEP      L**3/T
     ------------------                 ------------------------

           IN:                                      IN:
           ---                                      ---
             STORAGE =        7763.1279               STORAGE =       1.2573E-02
       CONSTANT HEAD =           0.0000         CONSTANT HEAD =           0.0000
               WELLS =           0.0000                 WELLS =           0.0000
     HEAD DEP BOUNDS =      657502.1875       HEAD DEP BOUNDS =           0.2092
        UZF RECHARGE =    27060816.0000          UZF RECHARGE =           9.2642
               GW ET =           0.0000                 GW ET =           0.0000
     SURFACE LEAKAGE =           0.0000       SURFACE LEAKAGE =           0.0000
      STREAM LEAKAGE =   138301744.0000        STREAM LEAKAGE =          43.8523

            TOTAL IN =   166027824.0000              TOTAL IN =          53.3383

          OUT:                                     OUT:
          ----                                     ----
             STORAGE =     3821149.0000               STORAGE =           7.1003
       CONSTANT HEAD =           0.0000         CONSTANT HEAD =           0.0000
               WELLS =    62659428.0000                 WELLS =          20.0000
     HEAD DEP BOUNDS =      818433.1875       HEAD DEP BOUNDS =           0.2616
        UZF RECHARGE =           0.0000          UZF RECHARGE =           0.0000
               GW ET =    60553980.0000                 GW ET =          13.5983
     SURFACE LEAKAGE =           0.0000       SURFACE LEAKAGE =           0.0000
      STREAM LEAKAGE =    38167052.0000        STREAM LEAKAGE =          12.3066

           TOTAL OUT =   166020048.0000             TOTAL OUT =          53.2668

            IN - OUT =        7776.0000              IN - OUT =       7.1419E-02

 PERCENT DISCREPANCY =           0.00     PERCENT DISCREPANCY =           0.13






          TIME SUMMARY AT END OF TIME STEP   5 IN STRESS PERIOD    2
                    SECONDS     MINUTES      HOURS       DAYS        YEARS
                    -----------------------------------------------------------
   TIME STEP LENGTH 1.21100E+05  2018.3      33.639      1.4016     3.83743E-03
 STRESS PERIOD TIME 5.04972E+05  8416.2      140.27      5.8446     1.60016E-02
         TOTAL TIME 3.13297E+06  52216.      870.27      36.261     9.92779E-02
1
 
 SOLVING FOR HEAD 
     5 ITERATIONS FOR TIME STEP   6 IN STRESS PERIOD    2

 MAXIMUM HEAD CHANGE FOR EACH ITERATION:

    HEAD CHANGE   HEAD CHANGE   HEAD CHANGE   HEAD CHANGE   HEAD CHANGE
  LAYER,ROW,COL LAYER,ROW,COL LAYER,ROW,COL LAYER,ROW,COL LAYER,ROW,COL
 ----------------------------------------------------------------------
     0.1115E-01    0.3732E-02    0.1475E-02    0.5379E-03    0.1883E-03
  (  1, 12,  8) (  1,  3,  5) (  1,  3,  5) (  1,  3,  5) (  1,  3,  5)


 NO OUTPUT CONTROL FOR STRESS PERIOD    2   TIME STEP   6
 
 SOLVING FOR HEAD 
     6 ITERATIONS FOR TIME STEP   7 IN STRESS PERIOD    2

 MAXIMUM HEAD CHANGE FOR EACH ITERATION:

    HEAD CHANGE   HEAD CHANGE   HEAD CHANGE   HEAD CHANGE   HEAD CHANGE
  LAYER,ROW,COL LAYER,ROW,COL LAYER,ROW,COL LAYER,ROW,COL LAYER,ROW,COL
 ----------------------------------------------------------------------
     0.1171E-01    0.3776E-02    0.1465E-02    0.5581E-03    0.2001E-03
  (  1, 12,  8) (  1,  3,  5) (  1,  3,  5) (  1,  3,  5) (  1,  3,  5)
    -0.7516E-04
  (  1, 13,  6)


 NO OUTPUT CONTROL FOR STRESS PERIOD    2   TIME STEP   7
 
 SOLVING FOR HEAD 
     5 ITERATIONS FOR TIME STEP   8 IN STRESS PERIOD    2

 MAXIMUM HEAD CHANGE FOR EACH ITERATION:

    HEAD CHANGE   HEAD CHANGE   HEAD CHANGE   HEAD CHANGE   HEAD CHANGE
  LAYER,ROW,COL LAYER,ROW,COL LAYER,ROW,COL LAYER,ROW,COL LAYER,ROW,COL
 ----------------------------------------------------------------------
     0.1248E-01    0.3766E-02    0.1436E-02    0.4806E-03    0.1932E-03
  (  1, 12,  8) (  1,  3,  5) (  1,  3,  5) (  1,  3,  5) (  1,  3,  5)


 NO OUTPUT CONTROL FOR STRESS PERIOD    2   TIME STEP   8
 
 SOLVING FOR HEAD 
     6 ITERATIONS FOR TIME STEP   9 IN STRESS PERIOD    2

 MAXIMUM HEAD CHANGE FOR EACH ITERATION:

    HEAD CHANGE   HEAD CHANGE   HEAD CHANGE   HEAD CHANGE   HEAD CHANGE
  LAYER,ROW,COL LAYER,ROW,COL LAYER,ROW,COL LAYER,ROW,COL LAYER,ROW,COL
 ----------------------------------------------------------------------
     0.1310E-01    0.3699E-02    0.1366E-02    0.4867E-03    0.2033E-03
  (  1, 12,  8) (  1, 12,  8) (  1,  3,  5) (  1,  3,  5) (  1,  3,  5)
     0.9381E-04
  (  1, 13,  5)


 NO OUTPUT CONTROL FOR STRESS PERIOD    2   TIME STEP   9
 
 SOLVING FOR HEAD 
     6 ITERATIONS FOR TIME STEP  10 IN STRESS PERIOD    2

 MAXIMUM HEAD CHANGE FOR EACH ITERATION:

    HEAD CHANGE   HEAD CHANGE   HEAD CHANGE   HEAD CHANGE   HEAD CHANGE
  LAYER,ROW,COL LAYER,ROW,COL LAYER,ROW,COL LAYER,ROW,COL LAYER,ROW,COL
 ----------------------------------------------------------------------
     0.1383E-01    0.3831E-02    0.1274E-02    0.4882E-03    0.2019E-03
  (  1, 12,  8) (  1, 12,  8) (  1,  3,  5) (  1,  3,  5) (  1, 13,  4)
     0.8923E-04
  (  1,  3,  5)


 OUTPUT CONTROL FOR STRESS PERIOD    2   TIME STEP  10
    PRINT BUDGET
    SAVE BUDGET

            WELLS   PERIOD    2   STEP  10
 WELL      1   LAYER   1   ROW     6   COL     4   RATE    -2.00000    
 WELL      2   LAYER   1   ROW     6   COL     5   RATE    -2.00000    
 WELL      3   LAYER   1   ROW     7   COL     4   RATE    -2.00000    
 WELL      4   LAYER   1   ROW     7   COL     5   RATE    -2.00000    
 WELL      5   LAYER   1   ROW     8   COL     4   RATE    -2.00000    
 WELL      6   LAYER   1   ROW     8   COL     5   RATE    -2.00000    
 WELL      7   LAYER   1   ROW     9   COL     4   RATE    -2.00000    
 WELL      8   LAYER   1   ROW     9   COL     5   RATE    -2.00000    
 WELL      9   LAYER   1   ROW    10   COL     4   RATE    -2.00000    
 WELL     10   LAYER   1   ROW    10   COL     5   RATE    -2.00000    

  HEAD DEP BOUNDS   PERIOD    2   STEP  10
 BOUNDARY      1   LAYER   1   ROW    13   COL     1   RATE   -0.262149    
 BOUNDARY      2   LAYER   1   ROW    14   COL     9   RATE    0.208673    
 UBDSV3 SAVING "           GW ET" ON UNIT  61 AT TIME STEP 10, STRESS PERIOD   2
 UBDSV3 SAVING "    UZF RECHARGE" ON UNIT  61 AT TIME STEP 10, STRESS PERIOD   2
 UBDSV3 SAVING " SURFACE LEAKAGE" ON UNIT  61 AT TIME STEP 10, STRESS PERIOD   2


UNSATURATED ZONE PACKAGE VOLUMETRIC BUDGET FOR  TIME STEP   10 STRESS PERIOD    2
  ------------------------------------------------------------------------------



     CUMULATIVE VOLUMES      L**3       RATES FOR THIS TIME STEP      L**3/T
     ------------------                 ------------------------

           IN:                                      IN:
           ---                                      ---
        INFILTRATION =   111648524.4121          INFILTRATION =          67.8000

          OUT:                                     OUT:
          ----                                     ----
              UZF ET =   164098073.5051                UZF ET =         124.4177
        UZF RECHARGE =    34393080.3022          UZF RECHARGE =           9.0167

            IN - OUT =   -86842629.3953              IN - OUT =         -65.6344

          STORAGE:                                 STORAGE:
          --------                                 --------
      STORAGE CHANGE =   -86819765.7493        STORAGE CHANGE =         -65.6142

 PERCENT DISCREPANCY IS DIFFERENCE BETWEEN IN-OUT MINUS CHANGE IN STORAGE
 DIVIDED BY THE AVERAGE OF IN AND OUT TIMES 100

 PERCENT DISCREPANCY =           0.00     PERCENT DISCREPANCY =          -0.02









 STREAM LISTING     PERIOD      2   STEP       10

 LAYER ROW COL. STREAM  RCH.  FLOW INTO     FLOW TO   FLOW OUT OF   OVRLND.     DIRECT     STREAM       STREAM     STREAM     STREAM   STREAMBED  STREAMBED
                SEG.NO.  NO.  STRM. RCH.    AQUIFER    STRM. RCH.    RUNOFF     PRECIP       ET          HEAD       DEPTH      WIDTH   CONDCTNC.   GRADIENT

   1    1    1     1     1    2.5000E+01  1.0499E+00   2.3950E+01  0.000E+00  0.000E+00  0.000E+00  1.09422E+03  1.172E+00  1.296E+01  5.831E-01  6.002E-01
   1    2    2     1     2    2.3950E+01  3.0958E+00   2.0854E+01  0.000E+00  0.000E+00  0.000E+00  1.08920E+03  1.140E+00  1.253E+01  8.770E-01  1.177E+00
   1    3    3     1     3    2.0854E+01  2.9011E+00   1.7953E+01  0.000E+00  0.000E+00  0.000E+00  1.08351E+03  1.090E+00  1.182E+01  7.092E-01  1.363E+00
   1    3    4     1     4    1.7953E+01  2.4640E+00   1.5489E+01  0.000E+00  0.000E+00  0.000E+00  1.07845E+03  1.044E+00  1.098E+01  6.092E-01  1.348E+00
   1    4    5     2     1    5.4892E+00  2.6611E+00   2.8282E+00  0.000E+00  0.000E+00  0.000E+00  1.07235E+03  4.116E-01  1.200E+01  7.800E-01  1.137E+00
   1    5    6     2     2    2.8282E+00  1.9520E+00   8.7614E-01  0.000E+00  0.000E+00  0.000E+00  1.06676E+03  2.534E-01  1.200E+01  6.000E-01  1.084E+00
   1    6    6     2     3    8.7614E-01  8.7614E-01   0.0000E+00  0.000E+00  0.000E+00  0.000E+00  1.06183E+03  3.638E-02  1.200E+01  6.000E-01  1.012E+00
   1    7    6     2     4    0.0000E+00  0.0000E+00   0.0000E+00  0.000E+00  0.000E+00  0.000E+00  1.05708E+03  0.000E+00  1.200E+01  6.000E-01  1.000E+00
   1    8    6     2     5    0.0000E+00  0.0000E+00   0.0000E+00  0.000E+00  0.000E+00  0.000E+00  1.05236E+03  0.000E+00  1.200E+01  6.000E-01  1.000E+00
   1    3    5     3     1    1.0000E+01  2.8252E+00   7.1748E+00  0.000E+00  0.000E+00  0.000E+00  1.07555E+03  1.909E+00  9.636E+00  7.227E-01  1.955E+00
   1    3    6     3     2    7.1748E+00  2.2022E+00   4.9726E+00  0.000E+00  0.000E+00  0.000E+00  1.07264E+03  1.727E+00  8.909E+00  6.682E-01  1.648E+00
   1    3    7     3     3    4.9726E+00  1.1011E+00   3.8715E+00  0.000E+00  0.000E+00  0.000E+00  1.06987E+03  1.555E+00  8.218E+00  5.547E-01  9.925E-01
   1    4    8     3     4    3.8715E+00  1.6083E+00   2.2632E+00  0.000E+00  0.000E+00  0.000E+00  1.06682E+03  1.364E+00  7.455E+00  6.709E-01  1.199E+00
   1    5    8     3     5    2.2632E+00  1.5790E+00   6.8426E-01  0.000E+00  0.000E+00  0.000E+00  1.06362E+03  1.164E+00  6.655E+00  4.991E-01  1.582E+00
   1    6    8     3     6    6.8426E-01  5.5980E-01   1.2446E-01  0.000E+00  0.000E+00  0.000E+00  1.06158E+03  1.036E+00  6.145E+00  1.844E-01  1.518E+00
   1    5   10     4     1    1.0000E+01  9.0525E-01   9.0947E+00  0.000E+00  0.000E+00  0.000E+00  1.07835E+03  6.210E-01  1.000E+01  2.500E-01  1.207E+00
   1    5    9     4     2    9.0947E+00  1.7835E+00   7.3113E+00  0.000E+00  0.000E+00  0.000E+00  1.07148E+03  5.670E-01  1.000E+01  5.000E-01  1.189E+00
   1    6    8     4     3    7.3113E+00  1.2257E+00   6.0855E+00  0.000E+00  0.000E+00  0.000E+00  1.06368E+03  5.021E-01  1.000E+01  3.500E-01  1.167E+00
   1    6    8     5     1    6.2100E+00  1.0123E+00   5.1977E+00  0.000E+00  0.000E+00  0.000E+00  1.05855E+03  5.518E-01  1.080E+01  4.321E-01  7.810E-01
   1    7    7     5     2    5.1977E+00  1.6169E+00   3.5808E+00  0.000E+00  0.000E+00  0.000E+00  1.05400E+03  5.035E-01  9.230E+00  4.615E-01  1.168E+00
   1    8    7     5     3    3.5808E+00  9.0854E-01   2.6723E+00  0.000E+00  0.000E+00  0.000E+00  1.04970E+03  4.471E-01  7.531E+00  2.636E-01  1.149E+00
   1    8    6     5     4    2.6723E+00  5.4720E-01   2.1251E+00  0.000E+00  0.000E+00  0.000E+00  1.04666E+03  4.075E-01  6.423E+00  1.606E-01  1.136E+00
   1    9    6     6     1    2.1251E+00  1.9165E+00   2.0858E-01  0.000E+00  0.000E+00  0.000E+00  1.04292E+03  1.942E-01  1.200E+01  6.000E-01  1.065E+00
   1   10    7     6     2    2.0858E-01  2.0858E-01   0.0000E+00  0.000E+00  0.000E+00  0.000E+00  1.03820E+03  1.555E-02  1.200E+01  6.000E-01  1.005E+00
   1   11    7     6     3    0.0000E+00  0.0000E+00   0.0000E+00  0.000E+00  0.000E+00  0.000E+00  1.03364E+03  0.000E+00  1.200E+01  6.000E-01  1.000E+00
   1   12    7     6     4    0.0000E+00  0.0000E+00   0.0000E+00  0.000E+00  0.000E+00  0.000E+00  1.02909E+03  0.000E+00  1.200E+01  6.000E-01  3.933E-01
   1   13    7     6     5    0.0000E+00 -7.9176E-01   7.9176E-01  0.000E+00  0.000E+00  0.000E+00  1.02591E+03  0.000E+00  1.200E+01  2.400E-01 -1.100E+00
   1   14    9     7     1    1.5000E+02  2.0021E+00   1.4800E+02  0.000E+00  0.000E+00  0.000E+00  1.03987E+03  2.286E+00  5.529E+01  5.592E+00  1.193E-01
   1   13    8     7     2    1.4800E+02  3.0380E+00   1.4496E+02  0.000E+00  0.000E+00  0.000E+00  1.03477E+03  2.273E+00  5.523E+01  6.144E+00  1.648E-01
   1   13    7     7     3    1.4496E+02  2.6140E+00   1.4235E+02  0.000E+00  0.000E+00  0.000E+00  1.02968E+03  2.257E+00  5.516E+01  5.578E+00  1.562E-01
   1   13    6     8     1    1.4314E+02  9.4705E-01   1.4219E+02  0.000E+00  0.000E+00  0.000E+00  1.02464E+03  2.764E+00  4.008E+01  4.085E+00  7.729E-02
   1   13    5     8     2    1.4219E+02 -1.7712E+00   1.4396E+02  0.000E+00  0.000E+00  0.000E+00  1.01839E+03  2.767E+00  4.013E+01  4.089E+00 -1.444E-01
   1   13    4     8     3    1.4396E+02 -3.6007E+00   1.4756E+02  0.000E+00  0.000E+00  0.000E+00  1.01216E+03  2.787E+00  4.041E+01  4.118E+00 -2.915E-01
   1   13    3     8     4    1.4756E+02 -3.8702E+00   1.5143E+02  0.000E+00  0.000E+00  0.000E+00  1.00594E+03  2.813E+00  4.079E+01  4.157E+00 -3.103E-01
   1   13    2     8     5    1.5143E+02 -2.0389E+00   1.5347E+02  0.000E+00  0.000E+00  0.000E+00  9.99709E+02  2.834E+00  4.109E+01  4.188E+00 -1.623E-01
   1   13    1     8     6    1.5347E+02 -4.5607E-01   1.5393E+02  0.000E+00  0.000E+00  0.000E+00  9.94718E+02  2.843E+00  4.122E+01  2.520E+00 -6.032E-02



1
  VOLUMETRIC BUDGET FOR ENTIRE MODEL AT END OF TIME STEP 10 IN STRESS PERIOD   2
  ------------------------------------------------------------------------------

     CUMULATIVE VOLUMES      L**3       RATES FOR THIS TIME STEP      L**3/T
     ------------------                 ------------------------

           IN:                                      IN:
           ---                                      ---
             STORAGE =       13245.6182               STORAGE =       6.2561E-03
       CONSTANT HEAD =           0.0000         CONSTANT HEAD =           0.0000
               WELLS =           0.0000                 WELLS =           0.0000
     HEAD DEP BOUNDS =      827343.2500       HEAD DEP BOUNDS =           0.2087
        UZF RECHARGE =    34393100.0000          UZF RECHARGE =           9.0167
               GW ET =           0.0000                 GW ET =           0.0000
     SURFACE LEAKAGE =           0.0000       SURFACE LEAKAGE =           0.0000
      STREAM LEAKAGE =   173829328.0000        STREAM LEAKAGE =          43.6012

            TOTAL IN =   209063008.0000              TOTAL IN =          52.8328

          OUT:                                     OUT:
          ----                                     ----
             STORAGE =     9152112.0000               STORAGE =           6.3318
       CONSTANT HEAD =           0.0000         CONSTANT HEAD =           0.0000
               WELLS =    78924664.0000                 WELLS =          20.0000
     HEAD DEP BOUNDS =     1031481.5625       HEAD DEP BOUNDS =           0.2621
        UZF RECHARGE =           0.0000          UZF RECHARGE =           0.0000
               GW ET =    71655688.0000                 GW ET =          13.6828
     SURFACE LEAKAGE =           0.0000       SURFACE LEAKAGE =           0.0000
      STREAM LEAKAGE =    48271884.0000        STREAM LEAKAGE =          12.5289

           TOTAL OUT =   209035824.0000             TOTAL OUT =          52.8056

            IN - OUT =       27184.0000              IN - OUT =       2.7229E-02

 PERCENT DISCREPANCY =           0.01     PERCENT DISCREPANCY =           0.05






          TIME SUMMARY AT END OF TIME STEP  10 IN STRESS PERIOD    2
                    SECONDS     MINUTES      HOURS       DAYS        YEARS
                    -----------------------------------------------------------
   TIME STEP LENGTH 1.95033E+05  3250.6      54.176      2.2573     6.18023E-03
 STRESS PERIOD TIME 1.31823E+06  21971.      366.18      15.257     4.17723E-02
         TOTAL TIME 3.94623E+06  65771.      1096.2      45.674     0.12505    
1
 
 SOLVING FOR HEAD 
     6 ITERATIONS FOR TIME STEP  11 IN STRESS PERIOD    2

 MAXIMUM HEAD CHANGE FOR EACH ITERATION:

    HEAD CHANGE   HEAD CHANGE   HEAD CHANGE   HEAD CHANGE   HEAD CHANGE
  LAYER,ROW,COL LAYER,ROW,COL LAYER,ROW,COL LAYER,ROW,COL LAYER,ROW,COL
 ----------------------------------------------------------------------
     0.1442E-01    0.3988E-02    0.1329E-02    0.5959E-03    0.2368E-03
  (  1, 12,  8) (  1, 12,  8) (  1, 13,  3) (  1, 13,  3) (  1, 13,  4)
     0.1526E-03
  (  1, 13,  3)


 NO OUTPUT CONTROL FOR STRESS PERIOD    2   TIME STEP  11
 
 SOLVING FOR HEAD 
     6 ITERATIONS FOR TIME STEP  12 IN STRESS PERIOD    2

 MAXIMUM HEAD CHANGE FOR EACH ITERATION:

    HEAD CHANGE   HEAD CHANGE   HEAD CHANGE   HEAD CHANGE   HEAD CHANGE
  LAYER,ROW,COL LAYER,ROW,COL LAYER,ROW,COL LAYER,ROW,COL LAYER,ROW,COL
 ----------------------------------------------------------------------
     0.1515E-01    0.4029E-02    0.1435E-02    0.5862E-03    0.2286E-03
  (  1, 12,  8) (  1, 12,  8) (  1, 13,  5) (  1, 13,  5) (  1, 13,  5)
     0.7723E-04
  (  1, 13,  2)


 NO OUTPUT CONTROL FOR STRESS PERIOD    2   TIME STEP  12
 
 SOLVING FOR HEAD 
     5 ITERATIONS FOR TIME STEP  13 IN STRESS PERIOD    2

 MAXIMUM HEAD CHANGE FOR EACH ITERATION:

    HEAD CHANGE   HEAD CHANGE   HEAD CHANGE   HEAD CHANGE   HEAD CHANGE
  LAYER,ROW,COL LAYER,ROW,COL LAYER,ROW,COL LAYER,ROW,COL LAYER,ROW,COL
 ----------------------------------------------------------------------
     0.1574E-01    0.4167E-02    0.1196E-02    0.4397E-03    0.1731E-03
  (  1, 12,  8) (  1, 12,  8) (  1, 13,  5) (  1, 13,  5) (  1, 13,  3)


 NO OUTPUT CONTROL FOR STRESS PERIOD    2   TIME STEP  13
 
 SOLVING FOR HEAD 
     5 ITERATIONS FOR TIME STEP  14 IN STRESS PERIOD    2

 MAXIMUM HEAD CHANGE FOR EACH ITERATION:

    HEAD CHANGE   HEAD CHANGE   HEAD CHANGE   HEAD CHANGE   HEAD CHANGE
  LAYER,ROW,COL LAYER,ROW,COL LAYER,ROW,COL LAYER,ROW,COL LAYER,ROW,COL
 ----------------------------------------------------------------------
     0.1643E-01    0.4231E-02    0.1023E-02    0.4478E-03    0.1577E-03
  (  1, 12,  8) (  1, 12,  8) (  1, 12,  8) (  1, 13,  5) (  1, 13,  5)


 NO OUTPUT CONTROL FOR STRESS PERIOD    2   TIME STEP  14
 
 SOLVING FOR HEAD 
     5 ITERATIONS FOR TIME STEP  15 IN STRESS PERIOD    2

 MAXIMUM HEAD CHANGE FOR EACH ITERATION:

    HEAD CHANGE   HEAD CHANGE   HEAD CHANGE   HEAD CHANGE   HEAD CHANGE
  LAYER,ROW,COL LAYER,ROW,COL LAYER,ROW,COL LAYER,ROW,COL LAYER,ROW,COL
 ----------------------------------------------------------------------
     0.1698E-01    0.4246E-02    0.1045E-02    0.3290E-03    0.1396E-03
  (  1, 12,  8) (  1, 12,  8) (  1, 12,  8) (  1, 13,  3) (  1,  3,  5)


 OUTPUT CONTROL FOR STRESS PERIOD    2   TIME STEP  15
    PRINT BUDGET
    PRINT HEAD FOR ALL LAYERS
    SAVE HEAD FOR ALL LAYERS
    SAVE BUDGET

            WELLS   PERIOD    2   STEP  15
 WELL      1   LAYER   1   ROW     6   COL     4   RATE    -2.00000    
 WELL      2   LAYER   1   ROW     6   COL     5   RATE    -2.00000    
 WELL      3   LAYER   1   ROW     7   COL     4   RATE    -2.00000    
 WELL      4   LAYER   1   ROW     7   COL     5   RATE    -2.00000    
 WELL      5   LAYER   1   ROW     8   COL     4   RATE    -2.00000    
 WELL      6   LAYER   1   ROW     8   COL     5   RATE    -2.00000    
 WELL      7   LAYER   1   ROW     9   COL     4   RATE    -2.00000    
 WELL      8   LAYER   1   ROW     9   COL     5   RATE    -2.00000    
 WELL      9   LAYER   1   ROW    10   COL     4   RATE    -2.00000    
 WELL     10   LAYER   1   ROW    10   COL     5   RATE    -2.00000    

  HEAD DEP BOUNDS   PERIOD    2   STEP  15
 BOUNDARY      1   LAYER   1   ROW    13   COL     1   RATE   -0.262615    
 BOUNDARY      2   LAYER   1   ROW    14   COL     9   RATE    0.208433    
 UBDSV3 SAVING "           GW ET" ON UNIT  61 AT TIME STEP 15, STRESS PERIOD   2
 UBDSV3 SAVING "    UZF RECHARGE" ON UNIT  61 AT TIME STEP 15, STRESS PERIOD   2
 UBDSV3 SAVING " SURFACE LEAKAGE" ON UNIT  61 AT TIME STEP 15, STRESS PERIOD   2


UNSATURATED ZONE PACKAGE VOLUMETRIC BUDGET FOR  TIME STEP   15 STRESS PERIOD    2
  ------------------------------------------------------------------------------



     CUMULATIVE VOLUMES      L**3       RATES FOR THIS TIME STEP      L**3/T
     ------------------                 ------------------------

           IN:                                      IN:
           ---                                      ---
        INFILTRATION =   200450682.6777          INFILTRATION =          67.8000

          OUT:                                     OUT:
          ----                                     ----
              UZF ET =   326963282.0276                UZF ET =         124.3046
        UZF RECHARGE =    46561165.5657          UZF RECHARGE =           9.0551

            IN - OUT =  -173073764.9155              IN - OUT =         -65.5597

          STORAGE:                                 STORAGE:
          --------                                 --------
      STORAGE CHANGE =  -173027977.0454        STORAGE CHANGE =         -65.5378

 PERCENT DISCREPANCY IS DIFFERENCE BETWEEN IN-OUT MINUS CHANGE IN STORAGE
 DIVIDED BY THE AVERAGE OF IN AND OUT TIMES 100

 PERCENT DISCREPANCY =           0.00     PERCENT DISCREPANCY =          -0.02









 STREAM LISTING     PERIOD      2   STEP       15

 LAYER ROW COL. STREAM  RCH.  FLOW INTO     FLOW TO   FLOW OUT OF   OVRLND.     DIRECT     STREAM       STREAM     STREAM     STREAM   STREAMBED  STREAMBED
                SEG.NO.  NO.  STRM. RCH.    AQUIFER    STRM. RCH.    RUNOFF     PRECIP       ET          HEAD       DEPTH      WIDTH   CONDCTNC.   GRADIENT

   1    1    1     1     1    2.5000E+01  1.0295E+00   2.3970E+01  0.000E+00  0.000E+00  0.000E+00  1.09422E+03  1.172E+00  1.296E+01  5.832E-01  5.885E-01
   1    2    2     1     2    2.3970E+01  3.0628E+00   2.0908E+01  0.000E+00  0.000E+00  0.000E+00  1.08920E+03  1.141E+00  1.254E+01  8.776E-01  1.163E+00
   1    3    3     1     3    2.0908E+01  2.9055E+00   1.8002E+01  0.000E+00  0.000E+00  0.000E+00  1.08351E+03  1.091E+00  1.184E+01  7.102E-01  1.364E+00
   1    3    4     1     4    1.8002E+01  2.4680E+00   1.5534E+01  0.000E+00  0.000E+00  0.000E+00  1.07845E+03  1.045E+00  1.099E+01  6.101E-01  1.348E+00
   1    4    5     2     1    5.5342E+00  2.6631E+00   2.8711E+00  0.000E+00  0.000E+00  0.000E+00  1.07235E+03  4.142E-01  1.200E+01  7.800E-01  1.138E+00
   1    5    6     2     2    2.8711E+00  1.9541E+00   9.1698E-01  0.000E+00  0.000E+00  0.000E+00  1.06677E+03  2.568E-01  1.200E+01  6.000E-01  1.086E+00
   1    6    6     2     3    9.1698E-01  9.1698E-01   0.0000E+00  0.000E+00  0.000E+00  0.000E+00  1.06180E+03  9.348E-03  1.200E+01  6.000E-01  1.003E+00
   1    7    6     2     4    0.0000E+00  0.0000E+00   0.0000E+00  0.000E+00  0.000E+00  0.000E+00  1.05708E+03  0.000E+00  1.200E+01  6.000E-01  1.000E+00
   1    8    6     2     5    0.0000E+00  0.0000E+00   0.0000E+00  0.000E+00  0.000E+00  0.000E+00  1.05236E+03  0.000E+00  1.200E+01  6.000E-01  1.000E+00
   1    3    5     3     1    1.0000E+01  2.8252E+00   7.1748E+00  0.000E+00  0.000E+00  0.000E+00  1.07555E+03  1.909E+00  9.636E+00  7.227E-01  1.955E+00
   1    3    6     3     2    7.1748E+00  2.1845E+00   4.9903E+00  0.000E+00  0.000E+00  0.000E+00  1.07264E+03  1.727E+00  8.909E+00  6.682E-01  1.635E+00
   1    3    7     3     3    4.9903E+00  1.0814E+00   3.9089E+00  0.000E+00  0.000E+00  0.000E+00  1.06987E+03  1.555E+00  8.218E+00  5.547E-01  9.747E-01
   1    4    8     3     4    3.9089E+00  1.5696E+00   2.3393E+00  0.000E+00  0.000E+00  0.000E+00  1.06682E+03  1.364E+00  7.455E+00  6.709E-01  1.170E+00
   1    5    8     3     5    2.3393E+00  1.5790E+00   7.6034E-01  0.000E+00  0.000E+00  0.000E+00  1.06362E+03  1.164E+00  6.655E+00  4.991E-01  1.582E+00
   1    6    8     3     6    7.6034E-01  5.5980E-01   2.0054E-01  0.000E+00  0.000E+00  0.000E+00  1.06158E+03  1.036E+00  6.145E+00  1.844E-01  1.518E+00
   1    5   10     4     1    1.0000E+01  9.0525E-01   9.0947E+00  0.000E+00  0.000E+00  0.000E+00  1.07835E+03  6.210E-01  1.000E+01  2.500E-01  1.207E+00
   1    5    9     4     2    9.0947E+00  1.7835E+00   7.3113E+00  0.000E+00  0.000E+00  0.000E+00  1.07148E+03  5.670E-01  1.000E+01  5.000E-01  1.189E+00
   1    6    8     4     3    7.3113E+00  1.2257E+00   6.0855E+00  0.000E+00  0.000E+00  0.000E+00  1.06368E+03  5.021E-01  1.000E+01  3.500E-01  1.167E+00
   1    6    8     5     1    6.2861E+00  9.9842E-01   5.2877E+00  0.000E+00  0.000E+00  0.000E+00  1.05855E+03  5.546E-01  1.090E+01  4.358E-01  7.636E-01
   1    7    7     5     2    5.2877E+00  1.6361E+00   3.6516E+00  0.000E+00  0.000E+00  0.000E+00  1.05401E+03  5.067E-01  9.331E+00  4.666E-01  1.169E+00
   1    8    7     5     3    3.6516E+00  9.2062E-01   2.7310E+00  0.000E+00  0.000E+00  0.000E+00  1.04970E+03  4.503E-01  7.624E+00  2.668E-01  1.150E+00
   1    8    6     5     4    2.7310E+00  5.5516E-01   2.1758E+00  0.000E+00  0.000E+00  0.000E+00  1.04666E+03  4.107E-01  6.511E+00  1.628E-01  1.137E+00
   1    9    6     6     1    2.1758E+00  1.9194E+00   2.5637E-01  0.000E+00  0.000E+00  0.000E+00  1.04293E+03  1.990E-01  1.200E+01  6.000E-01  1.066E+00
   1   10    7     6     2    2.5637E-01  2.5637E-01   0.0000E+00  0.000E+00  0.000E+00  0.000E+00  1.03820E+03  1.760E-02  1.200E+01  6.000E-01  1.006E+00
   1   11    7     6     3    0.0000E+00  0.0000E+00   0.0000E+00  0.000E+00  0.000E+00  0.000E+00  1.03364E+03  0.000E+00  1.200E+01  6.000E-01  1.000E+00
   1   12    7     6     4    0.0000E+00  0.0000E+00   0.0000E+00  0.000E+00  0.000E+00  0.000E+00  1.02909E+03  0.000E+00  1.200E+01  6.000E-01  3.745E-01
   1   13    7     6     5    0.0000E+00 -7.9358E-01   7.9358E-01  0.000E+00  0.000E+00  0.000E+00  1.02591E+03  0.000E+00  1.200E+01  2.400E-01 -1.102E+00
   1   14    9     7     1    1.5000E+02  1.9673E+00   1.4803E+02  0.000E+00  0.000E+00  0.000E+00  1.03987E+03  2.286E+00  5.529E+01  5.592E+00  1.173E-01
   1   13    8     7     2    1.4803E+02  2.9937E+00   1.4504E+02  0.000E+00  0.000E+00  0.000E+00  1.03477E+03  2.273E+00  5.523E+01  6.144E+00  1.624E-01
   1   13    7     7     3    1.4504E+02  2.5747E+00   1.4246E+02  0.000E+00  0.000E+00  0.000E+00  1.02968E+03  2.258E+00  5.516E+01  5.578E+00  1.539E-01
   1   13    6     8     1    1.4326E+02  8.9568E-01   1.4236E+02  0.000E+00  0.000E+00  0.000E+00  1.02464E+03  2.765E+00  4.010E+01  4.086E+00  7.307E-02
   1   13    5     8     2    1.4236E+02 -1.9851E+00   1.4435E+02  0.000E+00  0.000E+00  0.000E+00  1.01839E+03  2.769E+00  4.016E+01  4.092E+00 -1.617E-01
   1   13    4     8     3    1.4435E+02 -3.7631E+00   1.4811E+02  0.000E+00  0.000E+00  0.000E+00  1.01217E+03  2.790E+00  4.046E+01  4.123E+00 -3.043E-01
   1   13    3     8     4    1.4811E+02 -4.0845E+00   1.5219E+02  0.000E+00  0.000E+00  0.000E+00  1.00594E+03  2.818E+00  4.086E+01  4.164E+00 -3.270E-01
   1   13    2     8     5    1.5219E+02 -2.0754E+00   1.5427E+02  0.000E+00  0.000E+00  0.000E+00  9.99714E+02  2.839E+00  4.117E+01  4.196E+00 -1.649E-01
   1   13    1     8     6    1.5427E+02 -4.7385E-01   1.5474E+02  0.000E+00  0.000E+00  0.000E+00  9.94723E+02  2.848E+00  4.130E+01  2.525E+00 -6.255E-02



1
              HEAD IN LAYER   1 AT END OF TIME STEP  15 IN STRESS PERIOD    2
  ---------------------------------------------------------------------------

           1       2       3       4       5       6       7       8       9      10
 ...................................................................................
   1  1092.45 1088.64 6999.00 6999.00 6999.00 6999.00 6999.00 6999.00 6999.00 6999.00
   2  1089.23 1085.71 1078.99 6999.00 6999.00 1071.61 1070.87 1070.38 6999.00 6999.00
   3  6999.00 1077.31 1074.11 1069.77 1070.17 1069.37 1067.92 1067.82 6999.00 6999.00
   4  1067.82 1068.30 1066.40 1062.69 1061.52 1060.31 1061.18 1064.48 1063.72 6999.00
   5  1063.68 1061.22 1058.40 1056.12 1055.89 1056.68 1056.77 1059.14 1062.77 1065.26
   6  1058.99 1055.26 1051.82 1049.36 1049.79 1051.92 1053.57 1056.26 1059.20 1063.61
   7  1055.33 1049.58 1045.87 1043.49 1044.29 1046.83 1049.66 1052.36 1054.05 6999.00
   8  6999.00 1042.24 1039.80 1037.86 1038.93 1041.67 1043.85 1046.90 1049.11 6999.00
   9  6999.00 1035.30 1033.84 1032.56 1033.96 1036.86 1038.06 1040.43 1043.70 6999.00
  10  6999.00 1028.29 1027.98 1027.92 1029.57 1032.03 1033.46 1035.84 1039.94 1044.37
  11  6999.00 1019.58 1020.95 1024.02 1026.12 1028.39 1030.00 1032.60 1036.22 6999.00
  12  1001.16 1008.78 1013.94 1018.64 1022.29 1025.56 1027.97 1031.04 1034.78 6999.00
  13   994.91 1000.21 1006.92 1013.08 1018.88 1024.42 1029.22 1034.29 1036.41 6999.00
  14  6999.00 1005.81 1011.48 1016.19 1021.23 1026.06 1030.48 1035.38 1039.51 6999.00
  15  6999.00 6999.00 1018.83 1021.82 1025.56 1028.54 6999.00 6999.00 6999.00 6999.00

 HEAD WILL BE SAVED ON UNIT   58 AT END OF TIME STEP  15, STRESS PERIOD    2
1
  VOLUMETRIC BUDGET FOR ENTIRE MODEL AT END OF TIME STEP 15 IN STRESS PERIOD   2
  ------------------------------------------------------------------------------

     CUMULATIVE VOLUMES      L**3       RATES FOR THIS TIME STEP      L**3/T
     ------------------                 ------------------------

           IN:                                      IN:
           ---                                      ---
             STORAGE =       34003.2031               STORAGE =       1.8456E-02
       CONSTANT HEAD =           0.0000         CONSTANT HEAD =           0.0000
               WELLS =           0.0000                 WELLS =           0.0000
     HEAD DEP BOUNDS =     1100433.1250       HEAD DEP BOUNDS =           0.2084
        UZF RECHARGE =    46561184.0000          UZF RECHARGE =           9.0551
               GW ET =           0.0000                 GW ET =           0.0000
     SURFACE LEAKAGE =           0.0000       SURFACE LEAKAGE =           0.0000
      STREAM LEAKAGE =   230788832.0000        STREAM LEAKAGE =          43.4314

            TOTAL IN =   278484448.0000              TOTAL IN =          52.7134

          OUT:                                     OUT:
          ----                                     ----
             STORAGE =    17021116.0000               STORAGE =           5.4987
       CONSTANT HEAD =           0.0000         CONSTANT HEAD =           0.0000
               WELLS =   105119992.0000                 WELLS =          20.0000
     HEAD DEP BOUNDS =     1375235.5000       HEAD DEP BOUNDS =           0.2626
        UZF RECHARGE =           0.0000          UZF RECHARGE =           0.0000
               GW ET =    89666744.0000                 GW ET =          13.7899
     SURFACE LEAKAGE =           0.0000       SURFACE LEAKAGE =           0.0000
      STREAM LEAKAGE =    65259920.0000        STREAM LEAKAGE =          13.1756

           TOTAL OUT =   278443008.0000             TOTAL OUT =          52.7268

            IN - OUT =       41440.0000              IN - OUT =      -1.3466E-02

 PERCENT DISCREPANCY =           0.01     PERCENT DISCREPANCY =          -0.03






          TIME SUMMARY AT END OF TIME STEP  15 IN STRESS PERIOD    2
                    SECONDS     MINUTES      HOURS       DAYS        YEARS
                    -----------------------------------------------------------
   TIME STEP LENGTH 3.14103E+05  5235.0      87.251      3.6354     9.95332E-03
 STRESS PERIOD TIME 2.62800E+06  43800.      730.00      30.417     8.32763E-02
         TOTAL TIME 5.25600E+06  87600.      1460.0      60.833     0.16655    
1
1
                            STRESS PERIOD NO.    3, LENGTH =   2628000.    
                            -----------------------------------------------

                              NUMBER OF TIME STEPS =    15

                               MULTIPLIER FOR DELT =     1.100

                            INITIAL TIME STEP SIZE =   82713.07    

 WELL NO.  LAYER   ROW   COL   STRESS RATE         
 --------------------------------------------------
      1      1      6      4      -1.000    
      2      1      6      5      -1.000    
      3      1      7      4      -1.000    
      4      1      7      5      -1.000    
      5      1      8      4      -1.000    
      6      1      8      5      -1.000    
      7      1      9      4      -1.000    
      8      1      9      5      -1.000    
      9      1     10      4      -1.000    
     10      1     10      5      -1.000    

     10 WELLS

 REUSING NON-PARAMETER GHB CELLS FROM LAST STRESS PERIOD

      2 GHB CELLS

 REUSING STREAM SEGMENT DATA FROM LAST STRESS PERIOD



            AREAL INFILTRATION RATE
 READING ON UNIT   19 WITH FORMAT: (10F4.0)            

            1           2           3           4           5           6           7           8           9          10
 ........................................................................................................................
   1   1.0000E-08  2.0000E-08   0.000       0.000       0.000       0.000       0.000       0.000       0.000       0.000    
   2   2.0000E-08  1.0000E-08  2.0000E-08   0.000       0.000      8.0000E-08  8.0000E-08  5.0000E-08   0.000       0.000    
   3    0.000      5.0000E-08  1.0000E-08  1.0000E-08  8.0000E-08  8.0000E-08  5.0000E-08  5.0000E-08   0.000       0.000    
   4   8.0000E-08  5.0000E-08  1.0000E-08  1.0000E-08  1.0000E-08  1.0000E-08  1.0000E-08  1.0000E-08  2.0000E-08   0.000    
   5   8.0000E-08  5.0000E-08  1.0000E-08  1.0000E-08  1.0000E-08  1.0000E-08  1.0000E-08  1.0000E-08  1.0000E-08  1.0000E-08
   6   8.0000E-08  5.0000E-08  5.0000E-08  2.0000E-08  2.0000E-08  1.0000E-08  1.0000E-08  1.0000E-08  1.0000E-08  5.0000E-08
   7   8.0000E-08  5.0000E-08  5.0000E-08  2.0000E-08  2.0000E-08  1.0000E-08  1.0000E-08  2.0000E-08  2.0000E-08   0.000    
   8    0.000      5.0000E-08  5.0000E-08  2.0000E-08  2.0000E-08  1.0000E-08  1.0000E-08  2.0000E-08  5.0000E-08   0.000    
   9    0.000      5.0000E-08  5.0000E-08  2.0000E-08  2.0000E-08  1.0000E-08  1.0000E-08  2.0000E-08  5.0000E-08   0.000    
  10    0.000      5.0000E-08  5.0000E-08  2.0000E-08  2.0000E-08  1.0000E-08  1.0000E-08  2.0000E-08  5.0000E-08  8.0000E-08
  11    0.000      1.0000E-08  1.0000E-08  1.0000E-08  1.0000E-08  1.0000E-08  1.0000E-08  2.0000E-08  5.0000E-08   0.000    
  12   1.0000E-08  1.0000E-08  1.0000E-08  1.0000E-08  1.0000E-08  1.0000E-08  1.0000E-08  1.0000E-08  2.0000E-08   0.000    
  13   1.0000E-08  1.0000E-08  2.0000E-08  2.0000E-08  2.0000E-08  2.0000E-08  2.0000E-08  1.0000E-08  1.0000E-08   0.000    
  14    0.000      2.0000E-08  5.0000E-08  5.0000E-08  5.0000E-08  5.0000E-08  5.0000E-08  2.0000E-08  1.0000E-08   0.000    
  15    0.000       0.000      8.0000E-08  8.0000E-08  8.0000E-08  8.0000E-08   0.000       0.000       0.000       0.000    

USING ET RATE FROM PREVIOUS STRESS PERIOD. CURRENT PERIOD IS:       3

 USING ET EXTINCTION DEPTH FROM PREVIOUS STRESS PERIOD. CURRENT PERIOD IS:       3

 USING EXTINCTION WATER CONTENT FROM PREVIOUS STRESS PERIOD. CURRENT PERIOD IS:       3
 
 SOLVING FOR HEAD 

     5 ITERATIONS FOR TIME STEP   1 IN STRESS PERIOD    3

 MAXIMUM HEAD CHANGE FOR EACH ITERATION:

    HEAD CHANGE   HEAD CHANGE   HEAD CHANGE   HEAD CHANGE   HEAD CHANGE
  LAYER,ROW,COL LAYER,ROW,COL LAYER,ROW,COL LAYER,ROW,COL LAYER,ROW,COL
 ----------------------------------------------------------------------
     0.1342E-01    0.4457E-02    0.1496E-02    0.5047E-03    0.1900E-03
  (  1, 10,  5) (  1,  9,  4) (  1,  8,  4) (  1,  8,  4) (  1,  8,  5)


 OUTPUT CONTROL FOR STRESS PERIOD    3   TIME STEP   1
    PRINT BUDGET
    SAVE BUDGET

            WELLS   PERIOD    3   STEP   1
 WELL      1   LAYER   1   ROW     6   COL     4   RATE    -1.00000    
 WELL      2   LAYER   1   ROW     6   COL     5   RATE    -1.00000    
 WELL      3   LAYER   1   ROW     7   COL     4   RATE    -1.00000    
 WELL      4   LAYER   1   ROW     7   COL     5   RATE    -1.00000    
 WELL      5   LAYER   1   ROW     8   COL     4   RATE    -1.00000    
 WELL      6   LAYER   1   ROW     8   COL     5   RATE    -1.00000    
 WELL      7   LAYER   1   ROW     9   COL     4   RATE    -1.00000    
 WELL      8   LAYER   1   ROW     9   COL     5   RATE    -1.00000    
 WELL      9   LAYER   1   ROW    10   COL     4   RATE    -1.00000    
 WELL     10   LAYER   1   ROW    10   COL     5   RATE    -1.00000    

  HEAD DEP BOUNDS   PERIOD    3   STEP   1
 BOUNDARY      1   LAYER   1   ROW    13   COL     1   RATE   -0.262635    
 BOUNDARY      2   LAYER   1   ROW    14   COL     9   RATE    0.208426    
 UBDSV3 SAVING "           GW ET" ON UNIT  61 AT TIME STEP  1, STRESS PERIOD   3
 UBDSV3 SAVING "    UZF RECHARGE" ON UNIT  61 AT TIME STEP  1, STRESS PERIOD   3
 UBDSV3 SAVING " SURFACE LEAKAGE" ON UNIT  61 AT TIME STEP  1, STRESS PERIOD   3


UNSATURATED ZONE PACKAGE VOLUMETRIC BUDGET FOR  TIME STEP    1 STRESS PERIOD    3
  ------------------------------------------------------------------------------



     CUMULATIVE VOLUMES      L**3       RATES FOR THIS TIME STEP      L**3/T
     ------------------                 ------------------------

           IN:                                      IN:
           ---                                      ---
        INFILTRATION =   207460615.3359          INFILTRATION =          84.7500

          OUT:                                     OUT:
          ----                                     ----
              UZF ET =   337242971.2856                UZF ET =         124.2813
        UZF RECHARGE =    47469330.2748          UZF RECHARGE =          10.9797

            IN - OUT =  -177251686.2245              IN - OUT =         -50.5110

          STORAGE:                                 STORAGE:
          --------                                 --------
      STORAGE CHANGE =  -177205407.0700        STORAGE CHANGE =         -50.5051

 PERCENT DISCREPANCY IS DIFFERENCE BETWEEN IN-OUT MINUS CHANGE IN STORAGE
 DIVIDED BY THE AVERAGE OF IN AND OUT TIMES 100

 PERCENT DISCREPANCY =           0.00     PERCENT DISCREPANCY =           0.00









 STREAM LISTING     PERIOD      3   STEP        1

 LAYER ROW COL. STREAM  RCH.  FLOW INTO     FLOW TO   FLOW OUT OF   OVRLND.     DIRECT     STREAM       STREAM     STREAM     STREAM   STREAMBED  STREAMBED
                SEG.NO.  NO.  STRM. RCH.    AQUIFER    STRM. RCH.    RUNOFF     PRECIP       ET          HEAD       DEPTH      WIDTH   CONDCTNC.   GRADIENT

   1    1    1     1     1    2.5000E+01  1.0284E+00   2.3972E+01  0.000E+00  0.000E+00  0.000E+00  1.09422E+03  1.172E+00  1.296E+01  5.832E-01  5.878E-01
   1    2    2     1     2    2.3972E+01  3.0612E+00   2.0910E+01  0.000E+00  0.000E+00  0.000E+00  1.08920E+03  1.141E+00  1.254E+01  8.776E-01  1.163E+00
   1    3    3     1     3    2.0910E+01  2.9057E+00   1.8005E+01  0.000E+00  0.000E+00  0.000E+00  1.08351E+03  1.091E+00  1.184E+01  7.102E-01  1.364E+00
   1    3    4     1     4    1.8005E+01  2.4682E+00   1.5536E+01  0.000E+00  0.000E+00  0.000E+00  1.07845E+03  1.045E+00  1.099E+01  6.101E-01  1.348E+00
   1    4    5     2     1    5.5365E+00  2.6632E+00   2.8733E+00  0.000E+00  0.000E+00  0.000E+00  1.07235E+03  4.144E-01  1.200E+01  7.800E-01  1.138E+00
   1    5    6     2     2    2.8733E+00  1.9542E+00   9.1909E-01  0.000E+00  0.000E+00  0.000E+00  1.06677E+03  2.570E-01  1.200E+01  6.000E-01  1.086E+00
   1    6    6     2     3    9.1909E-01  9.1909E-01   0.0000E+00  0.000E+00  0.000E+00  0.000E+00  1.06180E+03  9.360E-03  1.200E+01  6.000E-01  1.003E+00
   1    7    6     2     4    0.0000E+00  0.0000E+00   0.0000E+00  0.000E+00  0.000E+00  0.000E+00  1.05708E+03  0.000E+00  1.200E+01  6.000E-01  1.000E+00
   1    8    6     2     5    0.0000E+00  0.0000E+00   0.0000E+00  0.000E+00  0.000E+00  0.000E+00  1.05236E+03  0.000E+00  1.200E+01  6.000E-01  1.000E+00
   1    3    5     3     1    1.0000E+01  2.8252E+00   7.1748E+00  0.000E+00  0.000E+00  0.000E+00  1.07555E+03  1.909E+00  9.636E+00  7.227E-01  1.955E+00
   1    3    6     3     2    7.1748E+00  2.1843E+00   4.9905E+00  0.000E+00  0.000E+00  0.000E+00  1.07264E+03  1.727E+00  8.909E+00  6.682E-01  1.634E+00
   1    3    7     3     3    4.9905E+00  1.0807E+00   3.9098E+00  0.000E+00  0.000E+00  0.000E+00  1.06987E+03  1.555E+00  8.218E+00  5.547E-01  9.741E-01
   1    4    8     3     4    3.9098E+00  1.5678E+00   2.3420E+00  0.000E+00  0.000E+00  0.000E+00  1.06682E+03  1.364E+00  7.455E+00  6.709E-01  1.168E+00
   1    5    8     3     5    2.3420E+00  1.5790E+00   7.6302E-01  0.000E+00  0.000E+00  0.000E+00  1.06362E+03  1.164E+00  6.655E+00  4.991E-01  1.582E+00
   1    6    8     3     6    7.6302E-01  5.5980E-01   2.0323E-01  0.000E+00  0.000E+00  0.000E+00  1.06158E+03  1.036E+00  6.145E+00  1.844E-01  1.518E+00
   1    5   10     4     1    1.0000E+01  9.0525E-01   9.0947E+00  0.000E+00  0.000E+00  0.000E+00  1.07835E+03  6.210E-01  1.000E+01  2.500E-01  1.207E+00
   1    5    9     4     2    9.0947E+00  1.7835E+00   7.3113E+00  0.000E+00  0.000E+00  0.000E+00  1.07148E+03  5.670E-01  1.000E+01  5.000E-01  1.189E+00
   1    6    8     4     3    7.3113E+00  1.2257E+00   6.0855E+00  0.000E+00  0.000E+00  0.000E+00  1.06368E+03  5.021E-01  1.000E+01  3.500E-01  1.167E+00
   1    6    8     5     1    6.2888E+00  9.9758E-01   5.2912E+00  0.000E+00  0.000E+00  0.000E+00  1.05855E+03  5.547E-01  1.090E+01  4.360E-01  7.627E-01
   1    7    7     5     2    5.2912E+00  1.6368E+00   3.6543E+00  0.000E+00  0.000E+00  0.000E+00  1.05401E+03  5.068E-01  9.335E+00  4.668E-01  1.169E+00
   1    8    7     5     3    3.6543E+00  9.2110E-01   2.7332E+00  0.000E+00  0.000E+00  0.000E+00  1.04970E+03  4.504E-01  7.627E+00  2.670E-01  1.150E+00
   1    8    6     5     4    2.7332E+00  5.5548E-01   2.1778E+00  0.000E+00  0.000E+00  0.000E+00  1.04666E+03  4.108E-01  6.514E+00  1.629E-01  1.137E+00
   1    9    6     6     1    2.1778E+00  1.9195E+00   2.5822E-01  0.000E+00  0.000E+00  0.000E+00  1.04293E+03  1.992E-01  1.200E+01  6.000E-01  1.066E+00
   1   10    7     6     2    2.5822E-01  2.5822E-01   0.0000E+00  0.000E+00  0.000E+00  0.000E+00  1.03820E+03  1.767E-02  1.200E+01  6.000E-01  1.006E+00
   1   11    7     6     3    0.0000E+00  0.0000E+00   0.0000E+00  0.000E+00  0.000E+00  0.000E+00  1.03364E+03  0.000E+00  1.200E+01  6.000E-01  1.000E+00
   1   12    7     6     4    0.0000E+00  0.0000E+00   0.0000E+00  0.000E+00  0.000E+00  0.000E+00  1.02909E+03  0.000E+00  1.200E+01  6.000E-01  3.734E-01
   1   13    7     6     5    0.0000E+00 -7.9366E-01   7.9366E-01  0.000E+00  0.000E+00  0.000E+00  1.02591E+03  0.000E+00  1.200E+01  2.400E-01 -1.102E+00
   1   14    9     7     1    1.5000E+02  1.9663E+00   1.4803E+02  0.000E+00  0.000E+00  0.000E+00  1.03987E+03  2.286E+00  5.529E+01  5.592E+00  1.172E-01
   1   13    8     7     2    1.4803E+02  2.9911E+00   1.4504E+02  0.000E+00  0.000E+00  0.000E+00  1.03477E+03  2.273E+00  5.523E+01  6.144E+00  1.623E-01
   1   13    7     7     3    1.4504E+02  2.5731E+00   1.4247E+02  0.000E+00  0.000E+00  0.000E+00  1.02968E+03  2.258E+00  5.516E+01  5.578E+00  1.538E-01
   1   13    6     8     1    1.4326E+02  8.9281E-01   1.4237E+02  0.000E+00  0.000E+00  0.000E+00  1.02464E+03  2.765E+00  4.010E+01  4.086E+00  7.283E-02
   1   13    5     8     2    1.4237E+02 -1.9922E+00   1.4436E+02  0.000E+00  0.000E+00  0.000E+00  1.01839E+03  2.769E+00  4.016E+01  4.092E+00 -1.623E-01
   1   13    4     8     3    1.4436E+02 -3.7686E+00   1.4813E+02  0.000E+00  0.000E+00  0.000E+00  1.01217E+03  2.790E+00  4.046E+01  4.123E+00 -3.047E-01
   1   13    3     8     4    1.4813E+02 -4.0911E+00   1.5222E+02  0.000E+00  0.000E+00  0.000E+00  1.00594E+03  2.818E+00  4.086E+01  4.164E+00 -3.275E-01
   1   13    2     8     5    1.5222E+02 -2.0767E+00   1.5430E+02  0.000E+00  0.000E+00  0.000E+00  9.99715E+02  2.840E+00  4.117E+01  4.196E+00 -1.650E-01
   1   13    1     8     6    1.5430E+02 -4.7469E-01   1.5477E+02  0.000E+00  0.000E+00  0.000E+00  9.94724E+02  2.848E+00  4.130E+01  2.525E+00 -6.266E-02



1
  VOLUMETRIC BUDGET FOR ENTIRE MODEL AT END OF TIME STEP  1 IN STRESS PERIOD   3
  ------------------------------------------------------------------------------

     CUMULATIVE VOLUMES      L**3       RATES FOR THIS TIME STEP      L**3/T
     ------------------                 ------------------------

           IN:                                      IN:
           ---                                      ---
             STORAGE =       37519.4180               STORAGE =       4.2511E-02
       CONSTANT HEAD =           0.0000         CONSTANT HEAD =           0.0000
               WELLS =           0.0000                 WELLS =           0.0000
     HEAD DEP BOUNDS =     1117672.7500       HEAD DEP BOUNDS =           0.2084
        UZF RECHARGE =    47469348.0000          UZF RECHARGE =          10.9797
               GW ET =           0.0000                 GW ET =           0.0000
     SURFACE LEAKAGE =           0.0000       SURFACE LEAKAGE =           0.0000
      STREAM LEAKAGE =   234380512.0000        STREAM LEAKAGE =          43.4233

            TOTAL IN =   283005056.0000              TOTAL IN =          54.6539

          OUT:                                     OUT:
          ----                                     ----
             STORAGE =    18448700.0000               STORAGE =          17.2595
       CONSTANT HEAD =           0.0000         CONSTANT HEAD =           0.0000
               WELLS =   105947120.0000                 WELLS =          10.0000
     HEAD DEP BOUNDS =     1396958.8750       HEAD DEP BOUNDS =           0.2626
        UZF RECHARGE =           0.0000          UZF RECHARGE =           0.0000
               GW ET =    90808384.0000                 GW ET =          13.8024
     SURFACE LEAKAGE =           0.0000       SURFACE LEAKAGE =           0.0000
      STREAM LEAKAGE =    66351484.0000        STREAM LEAKAGE =          13.1970

           TOTAL OUT =   282952640.0000             TOTAL OUT =          54.5216

            IN - OUT =       52416.0000              IN - OUT =           0.1323

 PERCENT DISCREPANCY =           0.02     PERCENT DISCREPANCY =           0.24






          TIME SUMMARY AT END OF TIME STEP   1 IN STRESS PERIOD    3
                    SECONDS     MINUTES      HOURS       DAYS        YEARS
                    -----------------------------------------------------------
   TIME STEP LENGTH  82713.      1378.6      22.976     0.95733     2.62102E-03
 STRESS PERIOD TIME  82713.      1378.6      22.976     0.95733     2.62102E-03
         TOTAL TIME 5.33871E+06  88979.      1483.0      61.791     0.16917    
1
 
 SOLVING FOR HEAD 
     6 ITERATIONS FOR TIME STEP   2 IN STRESS PERIOD    3

 MAXIMUM HEAD CHANGE FOR EACH ITERATION:

    HEAD CHANGE   HEAD CHANGE   HEAD CHANGE   HEAD CHANGE   HEAD CHANGE
  LAYER,ROW,COL LAYER,ROW,COL LAYER,ROW,COL LAYER,ROW,COL LAYER,ROW,COL
 ----------------------------------------------------------------------
     0.1447E-01    0.4822E-02    0.1643E-02    0.5552E-03    0.2026E-03
  (  1,  9,  4) (  1,  9,  4) (  1,  8,  4) (  1,  8,  4) (  1,  6,  5)
     0.8700E-04
  (  1, 10,  4)


 NO OUTPUT CONTROL FOR STRESS PERIOD    3   TIME STEP   2
 
 SOLVING FOR HEAD 
     9 ITERATIONS FOR TIME STEP   3 IN STRESS PERIOD    3

 MAXIMUM HEAD CHANGE FOR EACH ITERATION:

    HEAD CHANGE   HEAD CHANGE   HEAD CHANGE   HEAD CHANGE   HEAD CHANGE
  LAYER,ROW,COL LAYER,ROW,COL LAYER,ROW,COL LAYER,ROW,COL LAYER,ROW,COL
 ----------------------------------------------------------------------
     0.2906E-01    0.1492E-01    0.7630E-02    0.3908E-02    0.2033E-02
  (  1,  3,  6) (  1,  3,  6) (  1,  3,  6) (  1,  3,  6) (  1,  3,  6)
     0.1002E-02    0.4981E-03    0.2783E-03    0.1748E-03
  (  1,  3,  6) (  1,  3,  6) (  1,  3,  6) (  1,  3,  6)


 NO OUTPUT CONTROL FOR STRESS PERIOD    3   TIME STEP   3
 
 SOLVING FOR HEAD 
     9 ITERATIONS FOR TIME STEP   4 IN STRESS PERIOD    3

 MAXIMUM HEAD CHANGE FOR EACH ITERATION:

    HEAD CHANGE   HEAD CHANGE   HEAD CHANGE   HEAD CHANGE   HEAD CHANGE
  LAYER,ROW,COL LAYER,ROW,COL LAYER,ROW,COL LAYER,ROW,COL LAYER,ROW,COL
 ----------------------------------------------------------------------
     0.3282E-01    0.1680E-01    0.8577E-02    0.4389E-02    0.2247E-02
  (  1,  3,  6) (  1,  3,  6) (  1,  3,  6) (  1,  3,  6) (  1,  3,  6)
     0.1101E-02    0.6114E-03    0.3179E-03    0.1287E-03
  (  1,  3,  6) (  1,  3,  6) (  1,  3,  6) (  1,  3,  6)


 NO OUTPUT CONTROL FOR STRESS PERIOD    3   TIME STEP   4
 
 SOLVING FOR HEAD 
     9 ITERATIONS FOR TIME STEP   5 IN STRESS PERIOD    3

 MAXIMUM HEAD CHANGE FOR EACH ITERATION:

    HEAD CHANGE   HEAD CHANGE   HEAD CHANGE   HEAD CHANGE   HEAD CHANGE
  LAYER,ROW,COL LAYER,ROW,COL LAYER,ROW,COL LAYER,ROW,COL LAYER,ROW,COL
 ----------------------------------------------------------------------
     0.3303E-01    0.1682E-01    0.8576E-02    0.4358E-02    0.2229E-02
  (  1,  3,  6) (  1,  3,  6) (  1,  3,  6) (  1,  3,  6) (  1,  3,  6)
     0.1160E-02    0.5885E-03    0.2608E-03    0.1235E-03
  (  1,  3,  6) (  1,  3,  6) (  1,  3,  6) (  1,  3,  6)


 OUTPUT CONTROL FOR STRESS PERIOD    3   TIME STEP   5
    PRINT BUDGET
    SAVE BUDGET

            WELLS   PERIOD    3   STEP   5
 WELL      1   LAYER   1   ROW     6   COL     4   RATE    -1.00000    
 WELL      2   LAYER   1   ROW     6   COL     5   RATE    -1.00000    
 WELL      3   LAYER   1   ROW     7   COL     4   RATE    -1.00000    
 WELL      4   LAYER   1   ROW     7   COL     5   RATE    -1.00000    
 WELL      5   LAYER   1   ROW     8   COL     4   RATE    -1.00000    
 WELL      6   LAYER   1   ROW     8   COL     5   RATE    -1.00000    
 WELL      7   LAYER   1   ROW     9   COL     4   RATE    -1.00000    
 WELL      8   LAYER   1   ROW     9   COL     5   RATE    -1.00000    
 WELL      9   LAYER   1   ROW    10   COL     4   RATE    -1.00000    
 WELL     10   LAYER   1   ROW    10   COL     5   RATE    -1.00000    

  HEAD DEP BOUNDS   PERIOD    3   STEP   5
 BOUNDARY      1   LAYER   1   ROW    13   COL     1   RATE   -0.262730    
 BOUNDARY      2   LAYER   1   ROW    14   COL     9   RATE    0.208395    
 UBDSV3 SAVING "           GW ET" ON UNIT  61 AT TIME STEP  5, STRESS PERIOD   3
 UBDSV3 SAVING "    UZF RECHARGE" ON UNIT  61 AT TIME STEP  5, STRESS PERIOD   3
 UBDSV3 SAVING " SURFACE LEAKAGE" ON UNIT  61 AT TIME STEP  5, STRESS PERIOD   3


UNSATURATED ZONE PACKAGE VOLUMETRIC BUDGET FOR  TIME STEP    5 STRESS PERIOD    3
  ------------------------------------------------------------------------------



     CUMULATIVE VOLUMES      L**3       RATES FOR THIS TIME STEP      L**3/T
     ------------------                 ------------------------

           IN:                                      IN:
           ---                                      ---
        INFILTRATION =   243247024.4336          INFILTRATION =          84.7500

          OUT:                                     OUT:
          ----                                     ----
              UZF ET =   389712722.9285                UZF ET =         124.2432
        UZF RECHARGE =    52642661.2365          UZF RECHARGE =          12.7616

            IN - OUT =  -199108359.7314              IN - OUT =         -52.2548

          STORAGE:                                 STORAGE:
          --------                                 --------
      STORAGE CHANGE =  -199056933.8819        STORAGE CHANGE =         -52.2395

 PERCENT DISCREPANCY IS DIFFERENCE BETWEEN IN-OUT MINUS CHANGE IN STORAGE
 DIVIDED BY THE AVERAGE OF IN AND OUT TIMES 100

 PERCENT DISCREPANCY =           0.00     PERCENT DISCREPANCY =          -0.01









 STREAM LISTING     PERIOD      3   STEP        5

 LAYER ROW COL. STREAM  RCH.  FLOW INTO     FLOW TO   FLOW OUT OF   OVRLND.     DIRECT     STREAM       STREAM     STREAM     STREAM   STREAMBED  STREAMBED
                SEG.NO.  NO.  STRM. RCH.    AQUIFER    STRM. RCH.    RUNOFF     PRECIP       ET          HEAD       DEPTH      WIDTH   CONDCTNC.   GRADIENT

   1    1    1     1     1    2.5000E+01  1.0234E+00   2.3977E+01  0.000E+00  0.000E+00  0.000E+00  1.09422E+03  1.173E+00  1.296E+01  5.832E-01  5.849E-01
   1    2    2     1     2    2.3977E+01  3.0536E+00   2.0923E+01  0.000E+00  0.000E+00  0.000E+00  1.08920E+03  1.141E+00  1.254E+01  8.777E-01  1.160E+00
   1    3    3     1     3    2.0923E+01  2.9067E+00   1.8016E+01  0.000E+00  0.000E+00  0.000E+00  1.08351E+03  1.091E+00  1.184E+01  7.104E-01  1.364E+00
   1    3    4     1     4    1.8016E+01  2.4691E+00   1.5547E+01  0.000E+00  0.000E+00  0.000E+00  1.07845E+03  1.046E+00  1.100E+01  6.103E-01  1.349E+00
   1    4    5     2     1    5.5472E+00  2.6637E+00   2.8835E+00  0.000E+00  0.000E+00  0.000E+00  1.07235E+03  4.150E-01  1.200E+01  7.800E-01  1.138E+00
   1    5    6     2     2    2.8835E+00  1.9547E+00   9.2881E-01  0.000E+00  0.000E+00  0.000E+00  1.06677E+03  2.578E-01  1.200E+01  6.000E-01  1.086E+00
   1    6    6     2     3    9.2881E-01  9.2881E-01   0.0000E+00  0.000E+00  0.000E+00  0.000E+00  1.06180E+03  9.419E-03  1.200E+01  6.000E-01  1.003E+00
   1    7    6     2     4    0.0000E+00  0.0000E+00   0.0000E+00  0.000E+00  0.000E+00  0.000E+00  1.05708E+03  0.000E+00  1.200E+01  6.000E-01  1.000E+00
   1    8    6     2     5    0.0000E+00  0.0000E+00   0.0000E+00  0.000E+00  0.000E+00  0.000E+00  1.05236E+03  0.000E+00  1.200E+01  6.000E-01  1.000E+00
   1    3    5     3     1    1.0000E+01  2.8252E+00   7.1748E+00  0.000E+00  0.000E+00  0.000E+00  1.07555E+03  1.909E+00  9.636E+00  7.227E-01  1.955E+00
   1    3    6     3     2    7.1748E+00  2.0547E+00   5.1201E+00  0.000E+00  0.000E+00  0.000E+00  1.07264E+03  1.727E+00  8.909E+00  6.682E-01  1.538E+00
   1    3    7     3     3    5.1201E+00  1.0722E+00   4.0479E+00  0.000E+00  0.000E+00  0.000E+00  1.06987E+03  1.555E+00  8.218E+00  5.547E-01  9.664E-01
   1    4    8     3     4    4.0479E+00  1.5596E+00   2.4883E+00  0.000E+00  0.000E+00  0.000E+00  1.06682E+03  1.364E+00  7.455E+00  6.709E-01  1.162E+00
   1    5    8     3     5    2.4883E+00  1.5790E+00   9.0931E-01  0.000E+00  0.000E+00  0.000E+00  1.06362E+03  1.164E+00  6.655E+00  4.991E-01  1.582E+00
   1    6    8     3     6    9.0931E-01  5.5980E-01   3.4952E-01  0.000E+00  0.000E+00  0.000E+00  1.06158E+03  1.036E+00  6.145E+00  1.844E-01  1.518E+00
   1    5   10     4     1    1.0000E+01  9.0525E-01   9.0947E+00  0.000E+00  0.000E+00  0.000E+00  1.07835E+03  6.210E-01  1.000E+01  2.500E-01  1.207E+00
   1    5    9     4     2    9.0947E+00  1.7835E+00   7.3113E+00  0.000E+00  0.000E+00  0.000E+00  1.07148E+03  5.670E-01  1.000E+01  5.000E-01  1.189E+00
   1    6    8     4     3    7.3113E+00  1.2257E+00   6.0855E+00  0.000E+00  0.000E+00  0.000E+00  1.06368E+03  5.021E-01  1.000E+01  3.500E-01  1.167E+00
   1    6    8     5     1    6.4351E+00  1.0079E+00   5.4271E+00  0.000E+00  0.000E+00  0.000E+00  1.05856E+03  5.594E-01  1.106E+01  4.423E-01  7.596E-01
   1    7    7     5     2    5.4271E+00  1.6656E+00   3.7615E+00  0.000E+00  0.000E+00  0.000E+00  1.05401E+03  5.116E-01  9.487E+00  4.743E-01  1.171E+00
   1    8    7     5     3    3.7615E+00  9.3926E-01   2.8222E+00  0.000E+00  0.000E+00  0.000E+00  1.04971E+03  4.552E-01  7.767E+00  2.718E-01  1.152E+00
   1    8    6     5     4    2.8222E+00  5.6746E-01   2.2548E+00  0.000E+00  0.000E+00  0.000E+00  1.04667E+03  4.156E-01  6.645E+00  1.661E-01  1.139E+00
   1    9    6     6     1    2.2548E+00  1.9239E+00   3.3086E-01  0.000E+00  0.000E+00  0.000E+00  1.04293E+03  2.065E-01  1.200E+01  6.000E-01  1.069E+00
   1   10    7     6     2    3.3086E-01  3.3086E-01   0.0000E+00  0.000E+00  0.000E+00  0.000E+00  1.03820E+03  2.051E-02  1.200E+01  6.000E-01  1.007E+00
   1   11    7     6     3    0.0000E+00  0.0000E+00   0.0000E+00  0.000E+00  0.000E+00  0.000E+00  1.03364E+03  0.000E+00  1.200E+01  6.000E-01  1.000E+00
   1   12    7     6     4    0.0000E+00  0.0000E+00   0.0000E+00  0.000E+00  0.000E+00  0.000E+00  1.02909E+03  0.000E+00  1.200E+01  6.000E-01  3.681E-01
   1   13    7     6     5    0.0000E+00 -7.9402E-01   7.9402E-01  0.000E+00  0.000E+00  0.000E+00  1.02591E+03  0.000E+00  1.200E+01  2.400E-01 -1.103E+00
   1   14    9     7     1    1.5000E+02  1.9618E+00   1.4804E+02  0.000E+00  0.000E+00  0.000E+00  1.03987E+03  2.286E+00  5.529E+01  5.592E+00  1.169E-01
   1   13    8     7     2    1.4804E+02  2.9833E+00   1.4505E+02  0.000E+00  0.000E+00  0.000E+00  1.03477E+03  2.273E+00  5.523E+01  6.144E+00  1.618E-01
   1   13    7     7     3    1.4505E+02  2.5652E+00   1.4249E+02  0.000E+00  0.000E+00  0.000E+00  1.02968E+03  2.258E+00  5.516E+01  5.578E+00  1.533E-01
   1   13    6     8     1    1.4328E+02  8.8183E-01   1.4240E+02  0.000E+00  0.000E+00  0.000E+00  1.02464E+03  2.766E+00  4.010E+01  4.087E+00  7.193E-02
   1   13    5     8     2    1.4240E+02 -2.0215E+00   1.4442E+02  0.000E+00  0.000E+00  0.000E+00  1.01839E+03  2.770E+00  4.016E+01  4.093E+00 -1.646E-01
   1   13    4     8     3    1.4442E+02 -3.7989E+00   1.4822E+02  0.000E+00  0.000E+00  0.000E+00  1.01217E+03  2.791E+00  4.047E+01  4.124E+00 -3.071E-01
   1   13    3     8     4    1.4822E+02 -4.1157E+00   1.5234E+02  0.000E+00  0.000E+00  0.000E+00  1.00594E+03  2.819E+00  4.087E+01  4.165E+00 -3.294E-01
   1   13    2     8     5    1.5234E+02 -2.0836E+00   1.5442E+02  0.000E+00  0.000E+00  0.000E+00  9.99715E+02  2.840E+00  4.119E+01  4.197E+00 -1.655E-01
   1   13    1     8     6    1.5442E+02 -4.7891E-01   1.5490E+02  0.000E+00  0.000E+00  0.000E+00  9.94724E+02  2.849E+00  4.132E+01  2.526E+00 -6.319E-02



1
  VOLUMETRIC BUDGET FOR ENTIRE MODEL AT END OF TIME STEP  5 IN STRESS PERIOD   3
  ------------------------------------------------------------------------------

     CUMULATIVE VOLUMES      L**3       RATES FOR THIS TIME STEP      L**3/T
     ------------------                 ------------------------

           IN:                                      IN:
           ---                                      ---
             STORAGE =       49878.3047               STORAGE =       3.6621E-02
       CONSTANT HEAD =           0.0000         CONSTANT HEAD =           0.0000
               WELLS =           0.0000                 WELLS =           0.0000
     HEAD DEP BOUNDS =     1205673.3750       HEAD DEP BOUNDS =           0.2084
        UZF RECHARGE =    52642684.0000          UZF RECHARGE =          12.7615
               GW ET =           0.0000                 GW ET =           0.0000
     SURFACE LEAKAGE =           0.0000       SURFACE LEAKAGE =           0.0000
      STREAM LEAKAGE =   252707968.0000        STREAM LEAKAGE =          43.3921

            TOTAL IN =   306606208.0000              TOTAL IN =          56.3986

          OUT:                                     OUT:
          ----                                     ----
             STORAGE =    26273782.0000               STORAGE =          18.9817
       CONSTANT HEAD =           0.0000         CONSTANT HEAD =           0.0000
               WELLS =   110169704.0000                 WELLS =          10.0000
     HEAD DEP BOUNDS =     1507883.6250       HEAD DEP BOUNDS =           0.2627
        UZF RECHARGE =           0.0000          UZF RECHARGE =           0.0000
               GW ET =    96646048.0000                 GW ET =          13.8421
     SURFACE LEAKAGE =           0.0000       SURFACE LEAKAGE =           0.0000
      STREAM LEAKAGE =    71949464.0000        STREAM LEAKAGE =          13.2927

           TOTAL OUT =   306546880.0000             TOTAL OUT =          56.3792

            IN - OUT =       59328.0000              IN - OUT =       1.9466E-02

 PERCENT DISCREPANCY =           0.02     PERCENT DISCREPANCY =           0.03






          TIME SUMMARY AT END OF TIME STEP   5 IN STRESS PERIOD    3
                    SECONDS     MINUTES      HOURS       DAYS        YEARS
                    -----------------------------------------------------------
   TIME STEP LENGTH 1.21100E+05  2018.3      33.639      1.4016     3.83743E-03
 STRESS PERIOD TIME 5.04972E+05  8416.2      140.27      5.8446     1.60016E-02
         TOTAL TIME 5.76097E+06  96016.      1600.3      66.678     0.18255    
1
 
 SOLVING FOR HEAD 
     9 ITERATIONS FOR TIME STEP   6 IN STRESS PERIOD    3

 MAXIMUM HEAD CHANGE FOR EACH ITERATION:

    HEAD CHANGE   HEAD CHANGE   HEAD CHANGE   HEAD CHANGE   HEAD CHANGE
  LAYER,ROW,COL LAYER,ROW,COL LAYER,ROW,COL LAYER,ROW,COL LAYER,ROW,COL
 ----------------------------------------------------------------------
     0.3337E-01    0.1702E-01    0.8729E-02    0.4486E-02    0.2228E-02
  (  1,  3,  6) (  1,  3,  6) (  1,  3,  6) (  1,  3,  6) (  1,  3,  6)
     0.1150E-02    0.6210E-03    0.2807E-03    0.1346E-03
  (  1,  3,  6) (  1,  3,  6) (  1,  3,  6) (  1,  3,  6)


 NO OUTPUT CONTROL FOR STRESS PERIOD    3   TIME STEP   6
 
 SOLVING FOR HEAD 
     9 ITERATIONS FOR TIME STEP   7 IN STRESS PERIOD    3

 MAXIMUM HEAD CHANGE FOR EACH ITERATION:

    HEAD CHANGE   HEAD CHANGE   HEAD CHANGE   HEAD CHANGE   HEAD CHANGE
  LAYER,ROW,COL LAYER,ROW,COL LAYER,ROW,COL LAYER,ROW,COL LAYER,ROW,COL
 ----------------------------------------------------------------------
     0.3336E-01    0.1705E-01    0.8720E-02    0.4399E-02    0.2250E-02
  (  1,  3,  6) (  1,  3,  6) (  1,  3,  6) (  1,  3,  6) (  1,  3,  6)
     0.1135E-02    0.5692E-03    0.3698E-03    0.1598E-03
  (  1,  3,  6) (  1,  3,  6) (  1,  3,  6) (  1,  3,  6)


 NO OUTPUT CONTROL FOR STRESS PERIOD    3   TIME STEP   7
 
 SOLVING FOR HEAD 
     9 ITERATIONS FOR TIME STEP   8 IN STRESS PERIOD    3

 MAXIMUM HEAD CHANGE FOR EACH ITERATION:

    HEAD CHANGE   HEAD CHANGE   HEAD CHANGE   HEAD CHANGE   HEAD CHANGE
  LAYER,ROW,COL LAYER,ROW,COL LAYER,ROW,COL LAYER,ROW,COL LAYER,ROW,COL
 ----------------------------------------------------------------------
     0.3283E-01    0.1681E-01    0.8524E-02    0.4334E-02    0.2273E-02
  (  1,  3,  6) (  1,  3,  6) (  1,  3,  6) (  1,  3,  6) (  1,  3,  6)
     0.1111E-02    0.5970E-03    0.3072E-03    0.1546E-03
  (  1,  3,  6) (  1,  3,  6) (  1,  3,  6) (  1,  3,  6)


 NO OUTPUT CONTROL FOR STRESS PERIOD    3   TIME STEP   8
 
 SOLVING FOR HEAD 
    10 ITERATIONS FOR TIME STEP   9 IN STRESS PERIOD    3

 MAXIMUM HEAD CHANGE FOR EACH ITERATION:

    HEAD CHANGE   HEAD CHANGE   HEAD CHANGE   HEAD CHANGE   HEAD CHANGE
  LAYER,ROW,COL LAYER,ROW,COL LAYER,ROW,COL LAYER,ROW,COL LAYER,ROW,COL
 ----------------------------------------------------------------------
     0.5684E-01    0.2871E-01    0.1455E-01    0.7422E-02    0.3765E-02
  (  1,  3,  5) (  1,  3,  5) (  1,  3,  5) (  1,  3,  5) (  1,  3,  5)
     0.1869E-02    0.9570E-03    0.5095E-03    0.2611E-03    0.1055E-03
  (  1,  3,  5) (  1,  3,  5) (  1,  3,  5) (  1,  3,  5) (  1,  3,  5)


 NO OUTPUT CONTROL FOR STRESS PERIOD    3   TIME STEP   9
 
 SOLVING FOR HEAD 
    10 ITERATIONS FOR TIME STEP  10 IN STRESS PERIOD    3

 MAXIMUM HEAD CHANGE FOR EACH ITERATION:

    HEAD CHANGE   HEAD CHANGE   HEAD CHANGE   HEAD CHANGE   HEAD CHANGE
  LAYER,ROW,COL LAYER,ROW,COL LAYER,ROW,COL LAYER,ROW,COL LAYER,ROW,COL
 ----------------------------------------------------------------------
     0.5857E-01    0.2973E-01    0.1509E-01    0.7692E-02    0.3871E-02
  (  1,  3,  5) (  1,  3,  5) (  1,  3,  5) (  1,  3,  5) (  1,  3,  5)
     0.2064E-02    0.1086E-02    0.5542E-03    0.3350E-03    0.1785E-03
  (  1,  3,  6) (  1,  3,  6) (  1,  3,  6) (  1,  3,  6) (  1,  3,  6)


 OUTPUT CONTROL FOR STRESS PERIOD    3   TIME STEP  10
    PRINT BUDGET
    SAVE BUDGET

            WELLS   PERIOD    3   STEP  10
 WELL      1   LAYER   1   ROW     6   COL     4   RATE    -1.00000    
 WELL      2   LAYER   1   ROW     6   COL     5   RATE    -1.00000    
 WELL      3   LAYER   1   ROW     7   COL     4   RATE    -1.00000    
 WELL      4   LAYER   1   ROW     7   COL     5   RATE    -1.00000    
 WELL      5   LAYER   1   ROW     8   COL     4   RATE    -1.00000    
 WELL      6   LAYER   1   ROW     8   COL     5   RATE    -1.00000    
 WELL      7   LAYER   1   ROW     9   COL     4   RATE    -1.00000    
 WELL      8   LAYER   1   ROW     9   COL     5   RATE    -1.00000    
 WELL      9   LAYER   1   ROW    10   COL     4   RATE    -1.00000    
 WELL     10   LAYER   1   ROW    10   COL     5   RATE    -1.00000    

  HEAD DEP BOUNDS   PERIOD    3   STEP  10
 BOUNDARY      1   LAYER   1   ROW    13   COL     1   RATE   -0.262860    
 BOUNDARY      2   LAYER   1   ROW    14   COL     9   RATE    0.208354    
 UBDSV3 SAVING "           GW ET" ON UNIT  61 AT TIME STEP 10, STRESS PERIOD   3
 UBDSV3 SAVING "    UZF RECHARGE" ON UNIT  61 AT TIME STEP 10, STRESS PERIOD   3
 UBDSV3 SAVING " SURFACE LEAKAGE" ON UNIT  61 AT TIME STEP 10, STRESS PERIOD   3


UNSATURATED ZONE PACKAGE VOLUMETRIC BUDGET FOR  TIME STEP   10 STRESS PERIOD    3
  ------------------------------------------------------------------------------



     CUMULATIVE VOLUMES      L**3       RATES FOR THIS TIME STEP      L**3/T
     ------------------                 ------------------------

           IN:                                      IN:
           ---                                      ---
        INFILTRATION =   312170964.2656          INFILTRATION =          84.7500

          OUT:                                     OUT:
          ----                                     ----
              UZF ET =   490702486.2356                UZF ET =         124.1303
        UZF RECHARGE =    64374207.4336          UZF RECHARGE =          15.4907

            IN - OUT =  -242905729.4035              IN - OUT =         -54.8710

          STORAGE:                                 STORAGE:
          --------                                 --------
      STORAGE CHANGE =  -242840120.0043        STORAGE CHANGE =         -54.8680

 PERCENT DISCREPANCY IS DIFFERENCE BETWEEN IN-OUT MINUS CHANGE IN STORAGE
 DIVIDED BY THE AVERAGE OF IN AND OUT TIMES 100

 PERCENT DISCREPANCY =           0.00     PERCENT DISCREPANCY =           0.00









 STREAM LISTING     PERIOD      3   STEP       10

 LAYER ROW COL. STREAM  RCH.  FLOW INTO     FLOW TO   FLOW OUT OF   OVRLND.     DIRECT     STREAM       STREAM     STREAM     STREAM   STREAMBED  STREAMBED
                SEG.NO.  NO.  STRM. RCH.    AQUIFER    STRM. RCH.    RUNOFF     PRECIP       ET          HEAD       DEPTH      WIDTH   CONDCTNC.   GRADIENT

   1    1    1     1     1    2.5000E+01  1.0148E+00   2.3985E+01  0.000E+00  0.000E+00  0.000E+00  1.09422E+03  1.173E+00  1.296E+01  5.832E-01  5.799E-01
   1    2    2     1     2    2.3985E+01  3.0414E+00   2.0944E+01  0.000E+00  0.000E+00  0.000E+00  1.08920E+03  1.141E+00  1.254E+01  8.779E-01  1.155E+00
   1    3    3     1     3    2.0944E+01  2.9084E+00   1.8035E+01  0.000E+00  0.000E+00  0.000E+00  1.08351E+03  1.092E+00  1.185E+01  7.108E-01  1.364E+00
   1    3    4     1     4    1.8035E+01  2.4707E+00   1.5565E+01  0.000E+00  0.000E+00  0.000E+00  1.07845E+03  1.046E+00  1.100E+01  6.107E-01  1.349E+00
   1    4    5     2     1    5.5647E+00  2.6645E+00   2.9002E+00  0.000E+00  0.000E+00  0.000E+00  1.07235E+03  4.160E-01  1.200E+01  7.800E-01  1.139E+00
   1    5    6     2     2    2.9002E+00  1.9555E+00   9.4478E-01  0.000E+00  0.000E+00  0.000E+00  1.06677E+03  2.591E-01  1.200E+01  6.000E-01  1.086E+00
   1    6    6     2     3    9.4478E-01  9.4478E-01   0.0000E+00  0.000E+00  0.000E+00  0.000E+00  1.06181E+03  1.903E-02  1.200E+01  6.000E-01  1.006E+00
   1    7    6     2     4    0.0000E+00  0.0000E+00   0.0000E+00  0.000E+00  0.000E+00  0.000E+00  1.05708E+03  0.000E+00  1.200E+01  6.000E-01  1.000E+00
   1    8    6     2     5    0.0000E+00  0.0000E+00   0.0000E+00  0.000E+00  0.000E+00  0.000E+00  1.05236E+03  0.000E+00  1.200E+01  6.000E-01  1.000E+00
   1    3    5     3     1    1.0000E+01  2.8252E+00   7.1748E+00  0.000E+00  0.000E+00  0.000E+00  1.07555E+03  1.909E+00  9.636E+00  7.227E-01  1.955E+00
   1    3    6     3     2    7.1748E+00  1.8072E+00   5.3676E+00  0.000E+00  0.000E+00  0.000E+00  1.07264E+03  1.727E+00  8.909E+00  6.682E-01  1.352E+00
   1    3    7     3     3    5.3676E+00  9.2966E-01   4.4380E+00  0.000E+00  0.000E+00  0.000E+00  1.06987E+03  1.555E+00  8.218E+00  5.547E-01  8.379E-01
   1    4    8     3     4    4.4380E+00  1.5471E+00   2.8909E+00  0.000E+00  0.000E+00  0.000E+00  1.06682E+03  1.364E+00  7.455E+00  6.709E-01  1.153E+00
   1    5    8     3     5    2.8909E+00  1.5790E+00   1.3119E+00  0.000E+00  0.000E+00  0.000E+00  1.06362E+03  1.164E+00  6.655E+00  4.991E-01  1.582E+00
   1    6    8     3     6    1.3119E+00  5.5980E-01   7.5211E-01  0.000E+00  0.000E+00  0.000E+00  1.06158E+03  1.036E+00  6.145E+00  1.844E-01  1.518E+00
   1    5   10     4     1    1.0000E+01  9.0525E-01   9.0947E+00  0.000E+00  0.000E+00  0.000E+00  1.07835E+03  6.210E-01  1.000E+01  2.500E-01  1.207E+00
   1    5    9     4     2    9.0947E+00  1.7835E+00   7.3113E+00  0.000E+00  0.000E+00  0.000E+00  1.07148E+03  5.670E-01  1.000E+01  5.000E-01  1.189E+00
   1    6    8     4     3    7.3113E+00  1.2257E+00   6.0855E+00  0.000E+00  0.000E+00  0.000E+00  1.06368E+03  5.021E-01  1.000E+01  3.500E-01  1.167E+00
   1    6    8     5     1    6.8377E+00  1.0400E+00   5.7977E+00  0.000E+00  0.000E+00  0.000E+00  1.05857E+03  5.719E-01  1.148E+01  4.594E-01  7.546E-01
   1    7    7     5     2    5.7977E+00  1.7431E+00   4.0546E+00  0.000E+00  0.000E+00  0.000E+00  1.05402E+03  5.242E-01  9.892E+00  4.946E-01  1.175E+00
   1    8    7     5     3    4.0546E+00  9.8814E-01   3.0665E+00  0.000E+00  0.000E+00  0.000E+00  1.04972E+03  4.679E-01  8.141E+00  2.849E-01  1.156E+00
   1    8    6     5     4    3.0665E+00  5.9974E-01   2.4667E+00  0.000E+00  0.000E+00  0.000E+00  1.04668E+03  4.283E-01  6.997E+00  1.749E-01  1.143E+00
   1    9    6     6     1    2.4667E+00  1.9354E+00   5.3134E-01  0.000E+00  0.000E+00  0.000E+00  1.04295E+03  2.257E-01  1.200E+01  6.000E-01  1.075E+00
   1   10    7     6     2    5.3134E-01  5.3134E-01   0.0000E+00  0.000E+00  0.000E+00  0.000E+00  1.03821E+03  2.725E-02  1.200E+01  6.000E-01  1.009E+00
   1   11    7     6     3    0.0000E+00  0.0000E+00   0.0000E+00  0.000E+00  0.000E+00  0.000E+00  1.03364E+03  0.000E+00  1.200E+01  6.000E-01  1.000E+00
   1   12    7     6     4    0.0000E+00  0.0000E+00   0.0000E+00  0.000E+00  0.000E+00  0.000E+00  1.02909E+03  0.000E+00  1.200E+01  6.000E-01  3.589E-01
   1   13    7     6     5    0.0000E+00 -7.9458E-01   7.9458E-01  0.000E+00  0.000E+00  0.000E+00  1.02591E+03  0.000E+00  1.200E+01  2.400E-01 -1.104E+00
   1   14    9     7     1    1.5000E+02  1.9558E+00   1.4804E+02  0.000E+00  0.000E+00  0.000E+00  1.03987E+03  2.286E+00  5.529E+01  5.592E+00  1.166E-01
   1   13    8     7     2    1.4804E+02  2.9717E+00   1.4507E+02  0.000E+00  0.000E+00  0.000E+00  1.03477E+03  2.273E+00  5.523E+01  6.144E+00  1.612E-01
   1   13    7     7     3    1.4507E+02  2.5528E+00   1.4252E+02  0.000E+00  0.000E+00  0.000E+00  1.02968E+03  2.258E+00  5.516E+01  5.578E+00  1.525E-01
   1   13    6     8     1    1.4331E+02  8.6209E-01   1.4245E+02  0.000E+00  0.000E+00  0.000E+00  1.02464E+03  2.766E+00  4.011E+01  4.087E+00  7.031E-02
   1   13    5     8     2    1.4245E+02 -2.1003E+00   1.4455E+02  0.000E+00  0.000E+00  0.000E+00  1.01840E+03  2.770E+00  4.017E+01  4.094E+00 -1.710E-01
   1   13    4     8     3    1.4455E+02 -3.8730E+00   1.4843E+02  0.000E+00  0.000E+00  0.000E+00  1.01217E+03  2.792E+00  4.048E+01  4.125E+00 -3.129E-01
   1   13    3     8     4    1.4843E+02 -4.1905E+00   1.5262E+02  0.000E+00  0.000E+00  0.000E+00  1.00595E+03  2.821E+00  4.090E+01  4.168E+00 -3.352E-01
   1   13    2     8     5    1.5262E+02 -2.0920E+00   1.5471E+02  0.000E+00  0.000E+00  0.000E+00  9.99717E+02  2.842E+00  4.122E+01  4.200E+00 -1.660E-01
   1   13    1     8     6    1.5471E+02 -4.8287E-01   1.5519E+02  0.000E+00  0.000E+00  0.000E+00  9.94726E+02  2.851E+00  4.134E+01  2.528E+00 -6.367E-02



1
  VOLUMETRIC BUDGET FOR ENTIRE MODEL AT END OF TIME STEP 10 IN STRESS PERIOD   3
  ------------------------------------------------------------------------------

     CUMULATIVE VOLUMES      L**3       RATES FOR THIS TIME STEP      L**3/T
     ------------------                 ------------------------

           IN:                                      IN:
           ---                                      ---
             STORAGE =       70330.2656               STORAGE =       2.3483E-02
       CONSTANT HEAD =           0.0000         CONSTANT HEAD =           0.0000
               WELLS =           0.0000                 WELLS =           0.0000
     HEAD DEP BOUNDS =     1375130.6250       HEAD DEP BOUNDS =           0.2084
        UZF RECHARGE =    64374228.0000          UZF RECHARGE =          15.4907
               GW ET =           0.0000                 GW ET =           0.0000
     SURFACE LEAKAGE =           0.0000       SURFACE LEAKAGE =           0.0000
      STREAM LEAKAGE =   287972064.0000        STREAM LEAKAGE =          43.3424

            TOTAL IN =   353791744.0000              TOTAL IN =          59.0650

          OUT:                                     OUT:
          ----                                     ----
             STORAGE =    42847592.0000               STORAGE =          21.2952
       CONSTANT HEAD =           0.0000         CONSTANT HEAD =           0.0000
               WELLS =   118302320.0000                 WELLS =          10.0000
     HEAD DEP BOUNDS =     1721617.0000       HEAD DEP BOUNDS =           0.2629
        UZF RECHARGE =           0.0000          UZF RECHARGE =           0.0000
               GW ET =   107961264.0000                 GW ET =          13.9663
     SURFACE LEAKAGE =           0.0000       SURFACE LEAKAGE =           0.0000
      STREAM LEAKAGE =    82885504.0000        STREAM LEAKAGE =          13.5332

           TOTAL OUT =   353718304.0000             TOTAL OUT =          59.0576

            IN - OUT =       73440.0000              IN - OUT =       7.3471E-03

 PERCENT DISCREPANCY =           0.02     PERCENT DISCREPANCY =           0.01






          TIME SUMMARY AT END OF TIME STEP  10 IN STRESS PERIOD    3
                    SECONDS     MINUTES      HOURS       DAYS        YEARS
                    -----------------------------------------------------------
   TIME STEP LENGTH 1.95033E+05  3250.6      54.176      2.2573     6.18023E-03
 STRESS PERIOD TIME 1.31823E+06  21971.      366.18      15.257     4.17723E-02
         TOTAL TIME 6.57423E+06 1.09571E+05  1826.2      76.091     0.20832    
1
 
 SOLVING FOR HEAD 
    10 ITERATIONS FOR TIME STEP  11 IN STRESS PERIOD    3

 MAXIMUM HEAD CHANGE FOR EACH ITERATION:

    HEAD CHANGE   HEAD CHANGE   HEAD CHANGE   HEAD CHANGE   HEAD CHANGE
  LAYER,ROW,COL LAYER,ROW,COL LAYER,ROW,COL LAYER,ROW,COL LAYER,ROW,COL
 ----------------------------------------------------------------------
     0.6263E-01    0.3169E-01    0.1604E-01    0.8140E-02    0.4315E-02
  (  1,  3,  5) (  1,  3,  5) (  1,  3,  5) (  1,  3,  5) (  1,  3,  6)
     0.2274E-02    0.1191E-02    0.6666E-03    0.3167E-03    0.1856E-03
  (  1,  3,  6) (  1,  3,  6) (  1,  3,  6) (  1,  3,  6) (  1,  3,  6)


 NO OUTPUT CONTROL FOR STRESS PERIOD    3   TIME STEP  11
 
 SOLVING FOR HEAD 
    11 ITERATIONS FOR TIME STEP  12 IN STRESS PERIOD    3

 MAXIMUM HEAD CHANGE FOR EACH ITERATION:

    HEAD CHANGE   HEAD CHANGE   HEAD CHANGE   HEAD CHANGE   HEAD CHANGE
  LAYER,ROW,COL LAYER,ROW,COL LAYER,ROW,COL LAYER,ROW,COL LAYER,ROW,COL
 ----------------------------------------------------------------------
     0.8985E-01    0.4811E-01    0.2569E-01    0.1378E-01    0.7345E-02
  (  1,  3,  5) (  1,  3,  5) (  1,  3,  5) (  1,  3,  5) (  1,  3,  5)
     0.3979E-02    0.2117E-02    0.1119E-02    0.6408E-03    0.3375E-03
  (  1,  3,  5) (  1,  3,  5) (  1,  3,  5) (  1,  3,  5) (  1,  3,  5)
     0.1374E-03
  (  1,  3,  5)


 NO OUTPUT CONTROL FOR STRESS PERIOD    3   TIME STEP  12
 
 SOLVING FOR HEAD 
    12 ITERATIONS FOR TIME STEP  13 IN STRESS PERIOD    3

 MAXIMUM HEAD CHANGE FOR EACH ITERATION:

    HEAD CHANGE   HEAD CHANGE   HEAD CHANGE   HEAD CHANGE   HEAD CHANGE
  LAYER,ROW,COL LAYER,ROW,COL LAYER,ROW,COL LAYER,ROW,COL LAYER,ROW,COL
 ----------------------------------------------------------------------
     0.8893E-01    0.4739E-01    0.2530E-01    0.1352E-01    0.7192E-02
  (  1,  3,  5) (  1,  3,  5) (  1,  3,  5) (  1,  3,  5) (  1,  3,  5)
     0.3803E-02    0.2052E-02    0.1095E-02    0.5994E-03    0.2723E-03
  (  1,  3,  5) (  1,  3,  5) (  1,  3,  5) (  1,  3,  5) (  1,  3,  5)
     0.2067E-03   -0.6583E-04
  (  1,  3,  5) (  1,  2,  2)


 NO OUTPUT CONTROL FOR STRESS PERIOD    3   TIME STEP  13
 
 SOLVING FOR HEAD 
    11 ITERATIONS FOR TIME STEP  14 IN STRESS PERIOD    3

 MAXIMUM HEAD CHANGE FOR EACH ITERATION:

    HEAD CHANGE   HEAD CHANGE   HEAD CHANGE   HEAD CHANGE   HEAD CHANGE
  LAYER,ROW,COL LAYER,ROW,COL LAYER,ROW,COL LAYER,ROW,COL LAYER,ROW,COL
 ----------------------------------------------------------------------
     0.8800E-01    0.4672E-01    0.2489E-01    0.1323E-01    0.7051E-02
  (  1,  3,  5) (  1,  3,  5) (  1,  3,  5) (  1,  3,  5) (  1,  3,  5)
     0.3746E-02    0.1994E-02    0.9820E-03    0.5309E-03    0.3553E-03
  (  1,  3,  5) (  1,  3,  5) (  1,  3,  5) (  1,  3,  5) (  1,  3,  5)
     0.1549E-03
  (  1,  3,  5)


 NO OUTPUT CONTROL FOR STRESS PERIOD    3   TIME STEP  14
 
 SOLVING FOR HEAD 
    11 ITERATIONS FOR TIME STEP  15 IN STRESS PERIOD    3

 MAXIMUM HEAD CHANGE FOR EACH ITERATION:

    HEAD CHANGE   HEAD CHANGE   HEAD CHANGE   HEAD CHANGE   HEAD CHANGE
  LAYER,ROW,COL LAYER,ROW,COL LAYER,ROW,COL LAYER,ROW,COL LAYER,ROW,COL
 ----------------------------------------------------------------------
     0.8772E-01    0.4653E-01    0.2465E-01    0.1312E-01    0.6978E-02
  (  1,  3,  5) (  1,  3,  5) (  1,  3,  5) (  1,  3,  5) (  1,  3,  5)
     0.3765E-02    0.2020E-02    0.1041E-02    0.5711E-03    0.2963E-03
  (  1,  3,  5) (  1,  3,  5) (  1,  3,  5) (  1,  3,  5) (  1,  3,  5)
     0.1495E-03
  (  1,  3,  5)


 OUTPUT CONTROL FOR STRESS PERIOD    3   TIME STEP  15
    PRINT BUDGET
    PRINT HEAD FOR ALL LAYERS
    SAVE HEAD FOR ALL LAYERS
    SAVE BUDGET

            WELLS   PERIOD    3   STEP  15
 WELL      1   LAYER   1   ROW     6   COL     4   RATE    -1.00000    
 WELL      2   LAYER   1   ROW     6   COL     5   RATE    -1.00000    
 WELL      3   LAYER   1   ROW     7   COL     4   RATE    -1.00000    
 WELL      4   LAYER   1   ROW     7   COL     5   RATE    -1.00000    
 WELL      5   LAYER   1   ROW     8   COL     4   RATE    -1.00000    
 WELL      6   LAYER   1   ROW     8   COL     5   RATE    -1.00000    
 WELL      7   LAYER   1   ROW     9   COL     4   RATE    -1.00000    
 WELL      8   LAYER   1   ROW     9   COL     5   RATE    -1.00000    
 WELL      9   LAYER   1   ROW    10   COL     4   RATE    -1.00000    
 WELL     10   LAYER   1   ROW    10   COL     5   RATE    -1.00000    

  HEAD DEP BOUNDS   PERIOD    3   STEP  15
 BOUNDARY      1   LAYER   1   ROW    13   COL     1   RATE   -0.262972    
 BOUNDARY      2   LAYER   1   ROW    14   COL     9   RATE    0.208329    
 UBDSV3 SAVING "           GW ET" ON UNIT  61 AT TIME STEP 15, STRESS PERIOD   3
 UBDSV3 SAVING "    UZF RECHARGE" ON UNIT  61 AT TIME STEP 15, STRESS PERIOD   3
 UBDSV3 SAVING " SURFACE LEAKAGE" ON UNIT  61 AT TIME STEP 15, STRESS PERIOD   3


UNSATURATED ZONE PACKAGE VOLUMETRIC BUDGET FOR  TIME STEP   15 STRESS PERIOD    3
  ------------------------------------------------------------------------------



     CUMULATIVE VOLUMES      L**3       RATES FOR THIS TIME STEP      L**3/T
     ------------------                 ------------------------

           IN:                                      IN:
           ---                                      ---
        INFILTRATION =   423173665.3594          INFILTRATION =          84.7500

          OUT:                                     OUT:
          ----                                     ----
              UZF ET =   640653663.0315                UZF ET =         108.5677
        UZF RECHARGE =    85577099.6779          UZF RECHARGE =          15.9865

            IN - OUT =  -303057097.3500              IN - OUT =         -39.8042

          STORAGE:                                 STORAGE:
          --------                                 --------
      STORAGE CHANGE =  -302960697.5578        STORAGE CHANGE =         -39.7695

 PERCENT DISCREPANCY IS DIFFERENCE BETWEEN IN-OUT MINUS CHANGE IN STORAGE
 DIVIDED BY THE AVERAGE OF IN AND OUT TIMES 100

 PERCENT DISCREPANCY =           0.00     PERCENT DISCREPANCY =          -0.03









 STREAM LISTING     PERIOD      3   STEP       15

 LAYER ROW COL. STREAM  RCH.  FLOW INTO     FLOW TO   FLOW OUT OF   OVRLND.     DIRECT     STREAM       STREAM     STREAM     STREAM   STREAMBED  STREAMBED
                SEG.NO.  NO.  STRM. RCH.    AQUIFER    STRM. RCH.    RUNOFF     PRECIP       ET          HEAD       DEPTH      WIDTH   CONDCTNC.   GRADIENT

   1    1    1     1     1    2.5000E+01  1.0035E+00   2.3997E+01  0.000E+00  0.000E+00  0.000E+00  1.09422E+03  1.173E+00  1.296E+01  5.833E-01  5.735E-01
   1    2    2     1     2    2.3997E+01  3.0261E+00   2.0970E+01  0.000E+00  0.000E+00  0.000E+00  1.08920E+03  1.141E+00  1.255E+01  8.782E-01  1.149E+00
   1    3    3     1     3    2.0970E+01  2.9106E+00   1.8060E+01  0.000E+00  0.000E+00  0.000E+00  1.08351E+03  1.092E+00  1.185E+01  7.113E-01  1.364E+00
   1    3    4     1     4    1.8060E+01  2.4726E+00   1.5587E+01  0.000E+00  0.000E+00  0.000E+00  1.07845E+03  1.046E+00  1.101E+01  6.111E-01  1.349E+00
   1    4    5     2     1    5.5872E+00  2.6655E+00   2.9217E+00  0.000E+00  0.000E+00  0.000E+00  1.07235E+03  4.173E-01  1.200E+01  7.800E-01  1.139E+00
   1    5    6     2     2    2.9217E+00  1.9565E+00   9.6520E-01  0.000E+00  0.000E+00  0.000E+00  1.06677E+03  2.608E-01  1.200E+01  6.000E-01  1.087E+00
   1    6    6     2     3    9.6520E-01  9.6520E-01   0.0000E+00  0.000E+00  0.000E+00  0.000E+00  1.06181E+03  1.928E-02  1.200E+01  6.000E-01  1.006E+00
   1    7    6     2     4    0.0000E+00  0.0000E+00   0.0000E+00  0.000E+00  0.000E+00  0.000E+00  1.05708E+03  0.000E+00  1.200E+01  6.000E-01  1.000E+00
   1    8    6     2     5    0.0000E+00  0.0000E+00   0.0000E+00  0.000E+00  0.000E+00  0.000E+00  1.05236E+03  0.000E+00  1.200E+01  6.000E-01  1.000E+00
   1    3    5     3     1    1.0000E+01  2.8252E+00   7.1748E+00  0.000E+00  0.000E+00  0.000E+00  1.07555E+03  1.909E+00  9.636E+00  7.227E-01  1.955E+00
   1    3    6     3     2    7.1748E+00  1.4656E+00   5.7092E+00  0.000E+00  0.000E+00  0.000E+00  1.07264E+03  1.727E+00  8.909E+00  6.682E-01  1.097E+00
   1    3    7     3     3    5.7092E+00  7.0829E-01   5.0010E+00  0.000E+00  0.000E+00  0.000E+00  1.06987E+03  1.555E+00  8.218E+00  5.547E-01  6.384E-01
   1    4    8     3     4    5.0010E+00  1.5732E+00   3.4278E+00  0.000E+00  0.000E+00  0.000E+00  1.06682E+03  1.364E+00  7.455E+00  6.709E-01  1.172E+00
   1    5    8     3     5    3.4278E+00  1.5790E+00   1.8488E+00  0.000E+00  0.000E+00  0.000E+00  1.06362E+03  1.164E+00  6.655E+00  4.991E-01  1.582E+00
   1    6    8     3     6    1.8488E+00  5.5980E-01   1.2890E+00  0.000E+00  0.000E+00  0.000E+00  1.06158E+03  1.036E+00  6.145E+00  1.844E-01  1.518E+00
   1    5   10     4     1    1.0000E+01  9.0525E-01   9.0947E+00  0.000E+00  0.000E+00  0.000E+00  1.07835E+03  6.210E-01  1.000E+01  2.500E-01  1.207E+00
   1    5    9     4     2    9.0947E+00  1.7835E+00   7.3113E+00  0.000E+00  0.000E+00  0.000E+00  1.07148E+03  5.670E-01  1.000E+01  5.000E-01  1.189E+00
   1    6    8     4     3    7.3113E+00  1.2257E+00   6.0855E+00  0.000E+00  0.000E+00  0.000E+00  1.06368E+03  5.021E-01  1.000E+01  3.500E-01  1.167E+00
   1    6    8     5     1    7.3745E+00  1.0757E+00   6.2988E+00  0.000E+00  0.000E+00  0.000E+00  1.05859E+03  5.879E-01  1.204E+01  4.817E-01  7.444E-01
   1    7    7     5     2    6.2988E+00  1.8454E+00   4.4534E+00  0.000E+00  0.000E+00  0.000E+00  1.05404E+03  5.405E-01  1.042E+01  5.212E-01  1.180E+00
   1    8    7     5     3    4.4534E+00  1.0529E+00   3.4005E+00  0.000E+00  0.000E+00  0.000E+00  1.04973E+03  4.842E-01  8.634E+00  3.022E-01  1.161E+00
   1    8    6     5     4    3.4005E+00  6.4260E-01   2.7579E+00  0.000E+00  0.000E+00  0.000E+00  1.04669E+03  4.447E-01  7.462E+00  1.865E-01  1.148E+00
   1    9    6     6     1    2.7579E+00  1.9502E+00   8.0764E-01  0.000E+00  0.000E+00  0.000E+00  1.04298E+03  2.504E-01  1.200E+01  6.000E-01  1.083E+00
   1   10    7     6     2    8.0764E-01  8.0764E-01   0.0000E+00  0.000E+00  0.000E+00  0.000E+00  1.03822E+03  3.503E-02  1.200E+01  6.000E-01  1.012E+00
   1   11    7     6     3    0.0000E+00  0.0000E+00   0.0000E+00  0.000E+00  0.000E+00  0.000E+00  1.03364E+03  0.000E+00  1.200E+01  6.000E-01  1.000E+00
   1   12    7     6     4    0.0000E+00  0.0000E+00   0.0000E+00  0.000E+00  0.000E+00  0.000E+00  1.02909E+03  0.000E+00  1.200E+01  6.000E-01  3.464E-01
   1   13    7     6     5    0.0000E+00 -7.9537E-01   7.9537E-01  0.000E+00  0.000E+00  0.000E+00  1.02591E+03  0.000E+00  1.200E+01  2.400E-01 -1.105E+00
   1   14    9     7     1    1.5000E+02  1.9523E+00   1.4805E+02  0.000E+00  0.000E+00  0.000E+00  1.03987E+03  2.286E+00  5.529E+01  5.592E+00  1.164E-01
   1   13    8     7     2    1.4805E+02  2.9639E+00   1.4508E+02  0.000E+00  0.000E+00  0.000E+00  1.03477E+03  2.273E+00  5.523E+01  6.144E+00  1.608E-01
   1   13    7     7     3    1.4508E+02  2.5352E+00   1.4255E+02  0.000E+00  0.000E+00  0.000E+00  1.02968E+03  2.258E+00  5.516E+01  5.578E+00  1.515E-01
   1   13    6     8     1    1.4334E+02  8.3735E-01   1.4251E+02  0.000E+00  0.000E+00  0.000E+00  1.02464E+03  2.766E+00  4.011E+01  4.087E+00  6.829E-02
   1   13    5     8     2    1.4251E+02 -2.1539E+00   1.4466E+02  0.000E+00  0.000E+00  0.000E+00  1.01840E+03  2.771E+00  4.018E+01  4.094E+00 -1.753E-01
   1   13    4     8     3    1.4466E+02 -3.9215E+00   1.4858E+02  0.000E+00  0.000E+00  0.000E+00  1.01217E+03  2.793E+00  4.050E+01  4.127E+00 -3.168E-01
   1   13    3     8     4    1.4858E+02 -4.2342E+00   1.5282E+02  0.000E+00  0.000E+00  0.000E+00  1.00595E+03  2.822E+00  4.092E+01  4.169E+00 -3.385E-01
   1   13    2     8     5    1.5282E+02 -2.1034E+00   1.5492E+02  0.000E+00  0.000E+00  0.000E+00  9.99719E+02  2.844E+00  4.124E+01  4.202E+00 -1.669E-01
   1   13    1     8     6    1.5492E+02 -4.8685E-01   1.5541E+02  0.000E+00  0.000E+00  0.000E+00  9.94728E+02  2.853E+00  4.137E+01  2.529E+00 -6.416E-02



1
              HEAD IN LAYER   1 AT END OF TIME STEP  15 IN STRESS PERIOD    3
  ---------------------------------------------------------------------------

           1       2       3       4       5       6       7       8       9      10
 ...................................................................................
   1  1092.50 1088.67 6999.00 6999.00 6999.00 6999.00 6999.00 6999.00 6999.00 6999.00
   2  1089.21 1085.75 1079.05 6999.00 6999.00 1071.67 1070.91 1070.38 6999.00 6999.00
   3  6999.00 1077.35 1074.20 1069.91 1071.34 1070.44 1068.60 1067.88 6999.00 6999.00
   4  1067.82 1068.31 1066.44 1062.76 1061.62 1060.40 1061.26 1064.47 1063.74 6999.00
   5  1063.68 1061.23 1058.43 1056.24 1056.00 1056.74 1056.83 1059.23 1062.85 1065.29
   6  1058.99 1055.27 1051.90 1049.84 1050.22 1052.05 1053.63 1056.35 1059.24 1063.61
   7  1055.33 1049.59 1045.97 1044.05 1044.79 1046.97 1049.75 1052.41 1054.06 6999.00
   8  6999.00 1042.24 1039.89 1038.43 1039.45 1041.83 1043.93 1046.91 1049.11 6999.00
   9  6999.00 1035.31 1033.92 1033.13 1034.47 1037.00 1038.14 1040.44 1043.70 6999.00
  10  6999.00 1028.30 1028.06 1028.42 1030.02 1032.19 1033.67 1035.88 1039.94 1044.37
  11  6999.00 1019.58 1020.98 1024.15 1026.25 1028.49 1030.11 1032.65 1036.23 6999.00
  12  1001.16 1008.80 1013.99 1018.71 1022.37 1025.64 1028.05 1031.08 1034.81 6999.00
  13   994.92 1000.22 1006.96 1013.12 1018.92 1024.44 1029.22 1034.29 1036.45 6999.00
  14  6999.00 1005.81 1011.49 1016.20 1021.24 1026.07 1030.49 1035.38 1039.52 6999.00
  15  6999.00 6999.00 1018.83 1021.82 1025.56 1028.54 6999.00 6999.00 6999.00 6999.00

 HEAD WILL BE SAVED ON UNIT   58 AT END OF TIME STEP  15, STRESS PERIOD    3
1
  VOLUMETRIC BUDGET FOR ENTIRE MODEL AT END OF TIME STEP 15 IN STRESS PERIOD   3
  ------------------------------------------------------------------------------

     CUMULATIVE VOLUMES      L**3       RATES FOR THIS TIME STEP      L**3/T
     ------------------                 ------------------------

           IN:                                      IN:
           ---                                      ---
             STORAGE =      323623.3125               STORAGE =           0.2011
       CONSTANT HEAD =           0.0000         CONSTANT HEAD =           0.0000
               WELLS =           0.0000                 WELLS =           0.0000
     HEAD DEP BOUNDS =     1648010.2500       HEAD DEP BOUNDS =           0.2083
        UZF RECHARGE =    85577120.0000          UZF RECHARGE =          15.9865
               GW ET =           0.0000                 GW ET =           0.0000
     SURFACE LEAKAGE =           0.0000       SURFACE LEAKAGE =           0.0000
      STREAM LEAKAGE =   344694912.0000        STREAM LEAKAGE =          43.2888

            TOTAL IN =   432243648.0000              TOTAL IN =          59.6848

          OUT:                                     OUT:
          ----                                     ----
             STORAGE =    71022224.0000               STORAGE =          21.0930
       CONSTANT HEAD =           0.0000         CONSTANT HEAD =           0.0000
               WELLS =   131399984.0000                 WELLS =          10.0000
     HEAD DEP BOUNDS =     2066001.0000       HEAD DEP BOUNDS =           0.2630
        UZF RECHARGE =           0.0000          UZF RECHARGE =           0.0000
               GW ET =   126930896.0000                 GW ET =          14.6592
     SURFACE LEAKAGE =           0.0000       SURFACE LEAKAGE =           0.0000
      STREAM LEAKAGE =   100753360.0000        STREAM LEAKAGE =          13.6951

           TOTAL OUT =   432172480.0000             TOTAL OUT =          59.7103

            IN - OUT =       71168.0000              IN - OUT =      -2.5532E-02

 PERCENT DISCREPANCY =           0.02     PERCENT DISCREPANCY =          -0.04






          TIME SUMMARY AT END OF TIME STEP  15 IN STRESS PERIOD    3
                    SECONDS     MINUTES      HOURS       DAYS        YEARS
                    -----------------------------------------------------------
   TIME STEP LENGTH 3.14103E+05  5235.0      87.251      3.6354     9.95332E-03
 STRESS PERIOD TIME 2.62800E+06  43800.      730.00      30.417     8.32763E-02
         TOTAL TIME 7.88400E+06 1.31400E+05  2190.0      91.250     0.24983    
1
1
                            STRESS PERIOD NO.    4, LENGTH =   2628000.    
                            -----------------------------------------------

                              NUMBER OF TIME STEPS =    15

                               MULTIPLIER FOR DELT =     1.100

                            INITIAL TIME STEP SIZE =   82713.07    

 WELL NO.  LAYER   ROW   COL   STRESS RATE         
 --------------------------------------------------
      1      1      6      4      -1.000    
      2      1      6      5      -1.000    
      3      1      7      4      -1.000    
      4      1      7      5      -1.000    
      5      1      8      4      -1.000    
      6      1      8      5      -1.000    
      7      1      9      4      -1.000    
      8      1      9      5      -1.000    
      9      1     10      4      -1.000    
     10      1     10      5      -1.000    

     10 WELLS

 REUSING NON-PARAMETER GHB CELLS FROM LAST STRESS PERIOD

      2 GHB CELLS

 REUSING STREAM SEGMENT DATA FROM LAST STRESS PERIOD



            AREAL INFILTRATION RATE
 READING ON UNIT   19 WITH FORMAT: (10F4.0)            

            1           2           3           4           5           6           7           8           9          10
 ........................................................................................................................
   1   2.0000E-08  4.0000E-08   0.000       0.000       0.000       0.000       0.000       0.000       0.000       0.000    
   2   4.0000E-08  2.0000E-08  4.0000E-08   0.000       0.000      1.6000E-07  1.6000E-07  1.0000E-07   0.000       0.000    
   3    0.000      1.0000E-07  2.0000E-08  2.0000E-08  1.6000E-07  1.6000E-07  1.0000E-07  1.0000E-07   0.000       0.000    
   4   1.6000E-07  1.0000E-07  2.0000E-08  2.0000E-08  2.0000E-08  2.0000E-08  2.0000E-08  2.0000E-08  4.0000E-08   0.000    
   5   1.6000E-07  1.0000E-07  2.0000E-08  2.0000E-08  2.0000E-08  2.0000E-08  2.0000E-08  2.0000E-08  2.0000E-08  2.0000E-08
   6   1.6000E-07  1.0000E-07  1.0000E-07  4.0000E-08  4.0000E-08  2.0000E-08  2.0000E-08  2.0000E-08  2.0000E-08  1.0000E-07
   7   1.6000E-07  1.0000E-07  1.0000E-07  4.0000E-08  4.0000E-08  2.0000E-08  2.0000E-08  4.0000E-08  4.0000E-08   0.000    
   8    0.000      1.0000E-07  1.0000E-07  4.0000E-08  4.0000E-08  2.0000E-08  2.0000E-08  4.0000E-08  1.0000E-07   0.000    
   9    0.000      1.0000E-07  1.0000E-07  4.0000E-08  4.0000E-08  2.0000E-08  2.0000E-08  4.0000E-08  1.0000E-07   0.000    
  10    0.000      1.0000E-07  1.0000E-07  4.0000E-08  4.0000E-08  2.0000E-08  2.0000E-08  4.0000E-08  1.0000E-07  1.6000E-07
  11    0.000      2.0000E-08  2.0000E-08  2.0000E-08  2.0000E-08  2.0000E-08  2.0000E-08  4.0000E-08  1.0000E-07   0.000    
  12   2.0000E-08  2.0000E-08  2.0000E-08  2.0000E-08  2.0000E-08  2.0000E-08  2.0000E-08  2.0000E-08  4.0000E-08   0.000    
  13   2.0000E-08  2.0000E-08  4.0000E-08  4.0000E-08  4.0000E-08  4.0000E-08  4.0000E-08  2.0000E-08  2.0000E-08   0.000    
  14    0.000      4.0000E-08  1.0000E-07  1.0000E-07  1.0000E-07  1.0000E-07  1.0000E-07  4.0000E-08  2.0000E-08   0.000    
  15    0.000       0.000      1.6000E-07  1.6000E-07  1.6000E-07  1.6000E-07   0.000       0.000       0.000       0.000    

USING ET RATE FROM PREVIOUS STRESS PERIOD. CURRENT PERIOD IS:       4

 USING ET EXTINCTION DEPTH FROM PREVIOUS STRESS PERIOD. CURRENT PERIOD IS:       4

 USING EXTINCTION WATER CONTENT FROM PREVIOUS STRESS PERIOD. CURRENT PERIOD IS:       4
 
 SOLVING FOR HEAD 

     9 ITERATIONS FOR TIME STEP   1 IN STRESS PERIOD    4

 MAXIMUM HEAD CHANGE FOR EACH ITERATION:

    HEAD CHANGE   HEAD CHANGE   HEAD CHANGE   HEAD CHANGE   HEAD CHANGE
  LAYER,ROW,COL LAYER,ROW,COL LAYER,ROW,COL LAYER,ROW,COL LAYER,ROW,COL
 ----------------------------------------------------------------------
     0.2142E-01    0.1173E-01    0.6443E-02    0.3566E-02    0.1978E-02
  (  1,  3,  5) (  1,  3,  5) (  1,  3,  5) (  1,  3,  5) (  1,  3,  5)
     0.1054E-02    0.6155E-03    0.3255E-03    0.1661E-03
  (  1,  3,  5) (  1,  3,  5) (  1,  3,  5) (  1,  3,  5)


 NO OUTPUT CONTROL FOR STRESS PERIOD    4   TIME STEP   1
 
 SOLVING FOR HEAD 
     9 ITERATIONS FOR TIME STEP   2 IN STRESS PERIOD    4

 MAXIMUM HEAD CHANGE FOR EACH ITERATION:

    HEAD CHANGE   HEAD CHANGE   HEAD CHANGE   HEAD CHANGE   HEAD CHANGE
  LAYER,ROW,COL LAYER,ROW,COL LAYER,ROW,COL LAYER,ROW,COL LAYER,ROW,COL
 ----------------------------------------------------------------------
     0.2292E-01    0.1264E-01    0.6916E-02    0.3772E-02    0.2087E-02
  (  1,  3,  5) (  1,  3,  5) (  1,  3,  5) (  1,  3,  5) (  1,  3,  5)
     0.1140E-02    0.6168E-03    0.3456E-03    0.1802E-03
  (  1,  3,  5) (  1,  3,  5) (  1,  3,  5) (  1,  3,  5)


 NO OUTPUT CONTROL FOR STRESS PERIOD    4   TIME STEP   2
 
 SOLVING FOR HEAD 
     9 ITERATIONS FOR TIME STEP   3 IN STRESS PERIOD    4

 MAXIMUM HEAD CHANGE FOR EACH ITERATION:

    HEAD CHANGE   HEAD CHANGE   HEAD CHANGE   HEAD CHANGE   HEAD CHANGE
  LAYER,ROW,COL LAYER,ROW,COL LAYER,ROW,COL LAYER,ROW,COL LAYER,ROW,COL
 ----------------------------------------------------------------------
     0.2424E-01    0.1332E-01    0.7297E-02    0.4021E-02    0.2206E-02
  (  1,  3,  5) (  1,  3,  5) (  1,  3,  5) (  1,  3,  5) (  1,  3,  5)
     0.1234E-02    0.6735E-03    0.3785E-03    0.1976E-03
  (  1,  3,  5) (  1,  3,  5) (  1,  3,  5) (  1,  3,  5)


 NO OUTPUT CONTROL FOR STRESS PERIOD    4   TIME STEP   3
 
 SOLVING FOR HEAD 
    10 ITERATIONS FOR TIME STEP   4 IN STRESS PERIOD    4

 MAXIMUM HEAD CHANGE FOR EACH ITERATION:

    HEAD CHANGE   HEAD CHANGE   HEAD CHANGE   HEAD CHANGE   HEAD CHANGE
  LAYER,ROW,COL LAYER,ROW,COL LAYER,ROW,COL LAYER,ROW,COL LAYER,ROW,COL
 ----------------------------------------------------------------------
     0.2574E-01    0.1418E-01    0.7852E-02    0.4313E-02    0.2401E-02
  (  1,  3,  5) (  1,  3,  5) (  1,  3,  5) (  1,  3,  5) (  1,  3,  5)
     0.1283E-02    0.7245E-03    0.4125E-03    0.2162E-03    0.1099E-03
  (  1,  3,  5) (  1,  3,  5) (  1,  3,  5) (  1,  3,  5) (  1,  3,  5)


 NO OUTPUT CONTROL FOR STRESS PERIOD    4   TIME STEP   4
 
 SOLVING FOR HEAD 
    10 ITERATIONS FOR TIME STEP   5 IN STRESS PERIOD    4

 MAXIMUM HEAD CHANGE FOR EACH ITERATION:

    HEAD CHANGE   HEAD CHANGE   HEAD CHANGE   HEAD CHANGE   HEAD CHANGE
  LAYER,ROW,COL LAYER,ROW,COL LAYER,ROW,COL LAYER,ROW,COL LAYER,ROW,COL
 ----------------------------------------------------------------------
     0.2731E-01    0.1500E-01    0.8281E-02    0.4519E-02    0.2444E-02
  (  1,  3,  5) (  1,  3,  5) (  1,  3,  5) (  1,  3,  5) (  1,  3,  5)
     0.1369E-02    0.7870E-03    0.3777E-03    0.2223E-03    0.1176E-03
  (  1,  3,  5) (  1,  3,  5) (  1,  3,  5) (  1,  3,  5) (  1,  3,  5)


 OUTPUT CONTROL FOR STRESS PERIOD    4   TIME STEP   5
    PRINT BUDGET
    SAVE BUDGET

            WELLS   PERIOD    4   STEP   5
 WELL      1   LAYER   1   ROW     6   COL     4   RATE    -1.00000    
 WELL      2   LAYER   1   ROW     6   COL     5   RATE    -1.00000    
 WELL      3   LAYER   1   ROW     7   COL     4   RATE    -1.00000    
 WELL      4   LAYER   1   ROW     7   COL     5   RATE    -1.00000    
 WELL      5   LAYER   1   ROW     8   COL     4   RATE    -1.00000    
 WELL      6   LAYER   1   ROW     8   COL     5   RATE    -1.00000    
 WELL      7   LAYER   1   ROW     9   COL     4   RATE    -1.00000    
 WELL      8   LAYER   1   ROW     9   COL     5   RATE    -1.00000    
 WELL      9   LAYER   1   ROW    10   COL     4   RATE    -1.00000    
 WELL     10   LAYER   1   ROW    10   COL     5   RATE    -1.00000    

  HEAD DEP BOUNDS   PERIOD    4   STEP   5
 BOUNDARY      1   LAYER   1   ROW    13   COL     1   RATE   -0.263012    
 BOUNDARY      2   LAYER   1   ROW    14   COL     9   RATE    0.208324    
 UBDSV3 SAVING "           GW ET" ON UNIT  61 AT TIME STEP  5, STRESS PERIOD   4
 UBDSV3 SAVING "    UZF RECHARGE" ON UNIT  61 AT TIME STEP  5, STRESS PERIOD   4
 UBDSV3 SAVING " SURFACE LEAKAGE" ON UNIT  61 AT TIME STEP  5, STRESS PERIOD   4


UNSATURATED ZONE PACKAGE VOLUMETRIC BUDGET FOR  TIME STEP    5 STRESS PERIOD    4
  ------------------------------------------------------------------------------



     CUMULATIVE VOLUMES      L**3       RATES FOR THIS TIME STEP      L**3/T
     ------------------                 ------------------------

           IN:                                      IN:
           ---                                      ---
        INFILTRATION =   508766348.8711          INFILTRATION =         169.5000

          OUT:                                     OUT:
          ----                                     ----
              UZF ET =   693345712.8174                UZF ET =         104.4092
        UZF RECHARGE =    93983470.9619          UZF RECHARGE =          18.1380

            IN - OUT =  -278562834.9082              IN - OUT =          46.9528

          STORAGE:                                 STORAGE:
          --------                                 --------
      STORAGE CHANGE =  -278457381.3832        STORAGE CHANGE =          46.9759

 PERCENT DISCREPANCY IS DIFFERENCE BETWEEN IN-OUT MINUS CHANGE IN STORAGE
 DIVIDED BY THE AVERAGE OF IN AND OUT TIMES 100

 PERCENT DISCREPANCY =           0.00     PERCENT DISCREPANCY =          -0.01









 STREAM LISTING     PERIOD      4   STEP        5

 LAYER ROW COL. STREAM  RCH.  FLOW INTO     FLOW TO   FLOW OUT OF   OVRLND.     DIRECT     STREAM       STREAM     STREAM     STREAM   STREAMBED  STREAMBED
                SEG.NO.  NO.  STRM. RCH.    AQUIFER    STRM. RCH.    RUNOFF     PRECIP       ET          HEAD       DEPTH      WIDTH   CONDCTNC.   GRADIENT

   1    1    1     1     1    2.5000E+01  9.9981E-01   2.4000E+01  0.000E+00  0.000E+00  0.000E+00  1.09422E+03  1.173E+00  1.296E+01  5.833E-01  5.713E-01
   1    2    2     1     2    2.4000E+01  3.0212E+00   2.0979E+01  0.000E+00  0.000E+00  0.000E+00  1.08920E+03  1.141E+00  1.255E+01  8.783E-01  1.147E+00
   1    3    3     1     3    2.0979E+01  2.9113E+00   1.8068E+01  0.000E+00  0.000E+00  0.000E+00  1.08351E+03  1.092E+00  1.186E+01  7.114E-01  1.364E+00
   1    3    4     1     4    1.8068E+01  2.4733E+00   1.5594E+01  0.000E+00  0.000E+00  0.000E+00  1.07845E+03  1.046E+00  1.101E+01  6.112E-01  1.349E+00
   1    4    5     2     1    5.5944E+00  2.6658E+00   2.9286E+00  0.000E+00  0.000E+00  0.000E+00  1.07235E+03  4.177E-01  1.200E+01  7.800E-01  1.139E+00
   1    5    6     2     2    2.9286E+00  1.9568E+00   9.7179E-01  0.000E+00  0.000E+00  0.000E+00  1.06677E+03  2.613E-01  1.200E+01  6.000E-01  1.087E+00
   1    6    6     2     3    9.7179E-01  9.7179E-01   0.0000E+00  0.000E+00  0.000E+00  0.000E+00  1.06181E+03  1.936E-02  1.200E+01  6.000E-01  1.006E+00
   1    7    6     2     4    0.0000E+00  0.0000E+00   0.0000E+00  0.000E+00  0.000E+00  0.000E+00  1.05708E+03  0.000E+00  1.200E+01  6.000E-01  1.000E+00
   1    8    6     2     5    0.0000E+00  0.0000E+00   0.0000E+00  0.000E+00  0.000E+00  0.000E+00  1.05236E+03  0.000E+00  1.200E+01  6.000E-01  1.000E+00
   1    3    5     3     1    1.0000E+01  2.8252E+00   7.1748E+00  0.000E+00  0.000E+00  0.000E+00  1.07555E+03  1.909E+00  9.636E+00  7.227E-01  1.955E+00
   1    3    6     3     2    7.1748E+00  1.3827E+00   5.7921E+00  0.000E+00  0.000E+00  0.000E+00  1.07264E+03  1.727E+00  8.909E+00  6.682E-01  1.035E+00
   1    3    7     3     3    5.7921E+00  6.5198E-01   5.1401E+00  0.000E+00  0.000E+00  0.000E+00  1.06987E+03  1.555E+00  8.218E+00  5.547E-01  5.877E-01
   1    4    8     3     4    5.1401E+00  1.5811E+00   3.5590E+00  0.000E+00  0.000E+00  0.000E+00  1.06682E+03  1.364E+00  7.455E+00  6.709E-01  1.178E+00
   1    5    8     3     5    3.5590E+00  1.5790E+00   1.9801E+00  0.000E+00  0.000E+00  0.000E+00  1.06362E+03  1.164E+00  6.655E+00  4.991E-01  1.582E+00
   1    6    8     3     6    1.9801E+00  5.5980E-01   1.4203E+00  0.000E+00  0.000E+00  0.000E+00  1.06158E+03  1.036E+00  6.145E+00  1.844E-01  1.518E+00
   1    5   10     4     1    1.0000E+01  9.0525E-01   9.0947E+00  0.000E+00  0.000E+00  0.000E+00  1.07835E+03  6.210E-01  1.000E+01  2.500E-01  1.207E+00
   1    5    9     4     2    9.0947E+00  1.7835E+00   7.3113E+00  0.000E+00  0.000E+00  0.000E+00  1.07148E+03  5.670E-01  1.000E+01  5.000E-01  1.189E+00
   1    6    8     4     3    7.3113E+00  1.2257E+00   6.0855E+00  0.000E+00  0.000E+00  0.000E+00  1.06368E+03  5.021E-01  1.000E+01  3.500E-01  1.167E+00
   1    6    8     5     1    7.5058E+00  1.0813E+00   6.4245E+00  0.000E+00  0.000E+00  0.000E+00  1.05859E+03  5.918E-01  1.218E+01  4.871E-01  7.400E-01
   1    7    7     5     2    6.4245E+00  1.8707E+00   4.5538E+00  0.000E+00  0.000E+00  0.000E+00  1.05404E+03  5.444E-01  1.056E+01  5.278E-01  1.181E+00
   1    8    7     5     3    4.5538E+00  1.0689E+00   3.4849E+00  0.000E+00  0.000E+00  0.000E+00  1.04974E+03  4.882E-01  8.755E+00  3.064E-01  1.163E+00
   1    8    6     5     4    3.4849E+00  6.5320E-01   2.8317E+00  0.000E+00  0.000E+00  0.000E+00  1.04670E+03  4.487E-01  7.576E+00  1.894E-01  1.150E+00
   1    9    6     6     1    2.8317E+00  1.9539E+00   8.7784E-01  0.000E+00  0.000E+00  0.000E+00  1.04298E+03  2.564E-01  1.200E+01  6.000E-01  1.085E+00
   1   10    7     6     2    8.7784E-01  8.7784E-01   0.0000E+00  0.000E+00  0.000E+00  0.000E+00  1.03822E+03  3.683E-02  1.200E+01  6.000E-01  1.012E+00
   1   11    7     6     3    0.0000E+00  0.0000E+00   0.0000E+00  0.000E+00  0.000E+00  0.000E+00  1.03364E+03  0.000E+00  1.200E+01  6.000E-01  1.000E+00
   1   12    7     6     4    0.0000E+00  0.0000E+00   0.0000E+00  0.000E+00  0.000E+00  0.000E+00  1.02909E+03  0.000E+00  1.200E+01  6.000E-01  3.422E-01
   1   13    7     6     5    0.0000E+00 -7.9565E-01   7.9565E-01  0.000E+00  0.000E+00  0.000E+00  1.02591E+03  0.000E+00  1.200E+01  2.400E-01 -1.105E+00
   1   14    9     7     1    1.5000E+02  1.9515E+00   1.4805E+02  0.000E+00  0.000E+00  0.000E+00  1.03987E+03  2.286E+00  5.529E+01  5.592E+00  1.163E-01
   1   13    8     7     2    1.4805E+02  2.9638E+00   1.4508E+02  0.000E+00  0.000E+00  0.000E+00  1.03477E+03  2.273E+00  5.523E+01  6.144E+00  1.608E-01
   1   13    7     7     3    1.4508E+02  2.5289E+00   1.4256E+02  0.000E+00  0.000E+00  0.000E+00  1.02968E+03  2.258E+00  5.516E+01  5.579E+00  1.511E-01
   1   13    6     8     1    1.4335E+02  7.5974E-01   1.4259E+02  0.000E+00  0.000E+00  0.000E+00  1.02464E+03  2.767E+00  4.012E+01  4.088E+00  6.195E-02
   1   13    5     8     2    1.4259E+02 -2.2146E+00   1.4481E+02  0.000E+00  0.000E+00  0.000E+00  1.01840E+03  2.772E+00  4.019E+01  4.096E+00 -1.802E-01
   1   13    4     8     3    1.4481E+02 -4.0467E+00   1.4885E+02  0.000E+00  0.000E+00  0.000E+00  1.01217E+03  2.794E+00  4.052E+01  4.129E+00 -3.267E-01
   1   13    3     8     4    1.4885E+02 -4.3037E+00   1.5316E+02  0.000E+00  0.000E+00  0.000E+00  1.00595E+03  2.824E+00  4.095E+01  4.173E+00 -3.438E-01
   1   13    2     8     5    1.5316E+02 -2.0999E+00   1.5526E+02  0.000E+00  0.000E+00  0.000E+00  9.99721E+02  2.846E+00  4.127E+01  4.206E+00 -1.664E-01
   1   13    1     8     6    1.5526E+02 -4.8410E-01   1.5574E+02  0.000E+00  0.000E+00  0.000E+00  9.94730E+02  2.855E+00  4.140E+01  2.531E+00 -6.375E-02



1
  VOLUMETRIC BUDGET FOR ENTIRE MODEL AT END OF TIME STEP  5 IN STRESS PERIOD   4
  ------------------------------------------------------------------------------

     CUMULATIVE VOLUMES      L**3       RATES FOR THIS TIME STEP      L**3/T
     ------------------                 ------------------------

           IN:                                      IN:
           ---                                      ---
             STORAGE =      431057.4375               STORAGE =           0.2018
       CONSTANT HEAD =           0.0000         CONSTANT HEAD =           0.0000
               WELLS =           0.0000                 WELLS =           0.0000
     HEAD DEP BOUNDS =     1753207.2500       HEAD DEP BOUNDS =           0.2083
        UZF RECHARGE =    93983488.0000          UZF RECHARGE =          18.1380
               GW ET =           0.0000                 GW ET =           0.0000
     SURFACE LEAKAGE =           0.0000       SURFACE LEAKAGE =           0.0000
      STREAM LEAKAGE =   366536672.0000        STREAM LEAKAGE =          43.2038

            TOTAL IN =   462704416.0000              TOTAL IN =          61.7519

          OUT:                                     OUT:
          ----                                     ----
             STORAGE =    81875848.0000               STORAGE =          22.7503
       CONSTANT HEAD =           0.0000         CONSTANT HEAD =           0.0000
               WELLS =   136449696.0000                 WELLS =          10.0000
     HEAD DEP BOUNDS =     2198806.0000       HEAD DEP BOUNDS =           0.2630
        UZF RECHARGE =           0.0000          UZF RECHARGE =           0.0000
               GW ET =   134373376.0000                 GW ET =          14.7667
     SURFACE LEAKAGE =           0.0000       SURFACE LEAKAGE =           0.0000
      STREAM LEAKAGE =   107711768.0000        STREAM LEAKAGE =          13.9447

           TOTAL OUT =   462609504.0000             TOTAL OUT =          61.7248

            IN - OUT =       94912.0000              IN - OUT =       2.7195E-02

 PERCENT DISCREPANCY =           0.02     PERCENT DISCREPANCY =           0.04






          TIME SUMMARY AT END OF TIME STEP   5 IN STRESS PERIOD    4
                    SECONDS     MINUTES      HOURS       DAYS        YEARS
                    -----------------------------------------------------------
   TIME STEP LENGTH 1.21100E+05  2018.3      33.639      1.4016     3.83743E-03
 STRESS PERIOD TIME 5.04972E+05  8416.2      140.27      5.8446     1.60016E-02
         TOTAL TIME 8.38897E+06 1.39816E+05  2330.3      97.095     0.26583    
1
 
 SOLVING FOR HEAD 
     9 ITERATIONS FOR TIME STEP   6 IN STRESS PERIOD    4

 MAXIMUM HEAD CHANGE FOR EACH ITERATION:

    HEAD CHANGE   HEAD CHANGE   HEAD CHANGE   HEAD CHANGE   HEAD CHANGE
  LAYER,ROW,COL LAYER,ROW,COL LAYER,ROW,COL LAYER,ROW,COL LAYER,ROW,COL
 ----------------------------------------------------------------------
     0.2869E-01    0.1572E-01    0.7974E-02    0.4233E-02    0.2321E-02
  (  1,  3,  5) (  1,  3,  5) (  1,  3,  5) (  1,  3,  5) (  1,  3,  5)
     0.1240E-02    0.6361E-03    0.3597E-03    0.1498E-03
  (  1,  3,  5) (  1,  3,  5) (  1,  3,  5) (  1,  3,  5)


 NO OUTPUT CONTROL FOR STRESS PERIOD    4   TIME STEP   6
 
 SOLVING FOR HEAD 
    14 ITERATIONS FOR TIME STEP   7 IN STRESS PERIOD    4

 MAXIMUM HEAD CHANGE FOR EACH ITERATION:

    HEAD CHANGE   HEAD CHANGE   HEAD CHANGE   HEAD CHANGE   HEAD CHANGE
  LAYER,ROW,COL LAYER,ROW,COL LAYER,ROW,COL LAYER,ROW,COL LAYER,ROW,COL
 ----------------------------------------------------------------------
     0.7038E-01    0.4440E-01    0.2805E-01    0.1776E-01    0.1116E-01
  (  1,  3,  6) (  1,  3,  6) (  1,  3,  6) (  1,  3,  6) (  1,  3,  6)
     0.7021E-02    0.4480E-02    0.2777E-02    0.1751E-02    0.1119E-02
  (  1,  3,  6) (  1,  3,  6) (  1,  3,  6) (  1,  3,  6) (  1,  3,  6)
     0.7361E-03    0.4882E-03    0.2693E-03    0.1391E-03
  (  1,  3,  6) (  1,  3,  6) (  1,  3,  6) (  1,  3,  6)


 NO OUTPUT CONTROL FOR STRESS PERIOD    4   TIME STEP   7
 
 SOLVING FOR HEAD 
    15 ITERATIONS FOR TIME STEP   8 IN STRESS PERIOD    4

 MAXIMUM HEAD CHANGE FOR EACH ITERATION:

    HEAD CHANGE   HEAD CHANGE   HEAD CHANGE   HEAD CHANGE   HEAD CHANGE
  LAYER,ROW,COL LAYER,ROW,COL LAYER,ROW,COL LAYER,ROW,COL LAYER,ROW,COL
 ----------------------------------------------------------------------
     0.1038        0.6490E-01    0.4052E-01    0.2563E-01    0.1624E-01
  (  1,  3,  5) (  1,  3,  5) (  1,  3,  6) (  1,  3,  6) (  1,  3,  6)
     0.1031E-01    0.6486E-02    0.4121E-02    0.2612E-02    0.1651E-02
  (  1,  3,  6) (  1,  3,  6) (  1,  3,  6) (  1,  3,  6) (  1,  3,  6)
     0.1082E-02    0.6864E-03    0.4196E-03    0.2710E-03    0.1480E-03
  (  1,  3,  6) (  1,  3,  6) (  1,  3,  6) (  1,  3,  6) (  1,  3,  6)


 NO OUTPUT CONTROL FOR STRESS PERIOD    4   TIME STEP   8
 
 SOLVING FOR HEAD 
    15 ITERATIONS FOR TIME STEP   9 IN STRESS PERIOD    4

 MAXIMUM HEAD CHANGE FOR EACH ITERATION:

    HEAD CHANGE   HEAD CHANGE   HEAD CHANGE   HEAD CHANGE   HEAD CHANGE
  LAYER,ROW,COL LAYER,ROW,COL LAYER,ROW,COL LAYER,ROW,COL LAYER,ROW,COL
 ----------------------------------------------------------------------
     0.1152        0.7136E-01    0.4418E-01    0.2739E-01    0.1697E-01
  (  1,  3,  5) (  1,  3,  5) (  1,  3,  5) (  1,  3,  5) (  1,  3,  5)
     0.1049E-01    0.6503E-02    0.4039E-02    0.2529E-02    0.1571E-02
  (  1,  3,  5) (  1,  3,  5) (  1,  3,  5) (  1,  3,  5) (  1,  3,  5)
     0.9729E-03    0.6002E-03    0.3757E-03    0.2294E-03    0.1484E-03
  (  1,  3,  5) (  1,  3,  5) (  1,  3,  6) (  1,  3,  6) (  1,  3,  6)


 NO OUTPUT CONTROL FOR STRESS PERIOD    4   TIME STEP   9
 
 SOLVING FOR HEAD 
    15 ITERATIONS FOR TIME STEP  10 IN STRESS PERIOD    4

 MAXIMUM HEAD CHANGE FOR EACH ITERATION:

    HEAD CHANGE   HEAD CHANGE   HEAD CHANGE   HEAD CHANGE   HEAD CHANGE
  LAYER,ROW,COL LAYER,ROW,COL LAYER,ROW,COL LAYER,ROW,COL LAYER,ROW,COL
 ----------------------------------------------------------------------
     0.1040        0.6421E-01    0.3967E-01    0.2452E-01    0.1517E-01
  (  1,  3,  5) (  1,  3,  5) (  1,  3,  5) (  1,  3,  5) (  1,  3,  5)
     0.9340E-02    0.5790E-02    0.3592E-02    0.2211E-02    0.1383E-02
  (  1,  3,  5) (  1,  3,  5) (  1,  3,  5) (  1,  3,  5) (  1,  3,  5)
     0.8295E-03    0.5576E-03    0.3359E-03    0.2297E-03    0.1475E-03
  (  1,  3,  5) (  1,  3,  6) (  1,  3,  6) (  1,  3,  5) (  1,  3,  6)


 OUTPUT CONTROL FOR STRESS PERIOD    4   TIME STEP  10
    PRINT BUDGET
    SAVE BUDGET

            WELLS   PERIOD    4   STEP  10
 WELL      1   LAYER   1   ROW     6   COL     4   RATE    -1.00000    
 WELL      2   LAYER   1   ROW     6   COL     5   RATE    -1.00000    
 WELL      3   LAYER   1   ROW     7   COL     4   RATE    -1.00000    
 WELL      4   LAYER   1   ROW     7   COL     5   RATE    -1.00000    
 WELL      5   LAYER   1   ROW     8   COL     4   RATE    -1.00000    
 WELL      6   LAYER   1   ROW     8   COL     5   RATE    -1.00000    
 WELL      7   LAYER   1   ROW     9   COL     4   RATE    -1.00000    
 WELL      8   LAYER   1   ROW     9   COL     5   RATE    -1.00000    
 WELL      9   LAYER   1   ROW    10   COL     4   RATE    -1.00000    
 WELL     10   LAYER   1   ROW    10   COL     5   RATE    -1.00000    

  HEAD DEP BOUNDS   PERIOD    4   STEP  10
 BOUNDARY      1   LAYER   1   ROW    13   COL     1   RATE   -0.263124    
 BOUNDARY      2   LAYER   1   ROW    14   COL     9   RATE    0.208316    
 UBDSV3 SAVING "           GW ET" ON UNIT  61 AT TIME STEP 10, STRESS PERIOD   4
 UBDSV3 SAVING "    UZF RECHARGE" ON UNIT  61 AT TIME STEP 10, STRESS PERIOD   4
 UBDSV3 SAVING " SURFACE LEAKAGE" ON UNIT  61 AT TIME STEP 10, STRESS PERIOD   4


UNSATURATED ZONE PACKAGE VOLUMETRIC BUDGET FOR  TIME STEP   10 STRESS PERIOD    4
  ------------------------------------------------------------------------------



     CUMULATIVE VOLUMES      L**3       RATES FOR THIS TIME STEP      L**3/T
     ------------------                 ------------------------

           IN:                                      IN:
           ---                                      ---
        INFILTRATION =   646614228.5352          INFILTRATION =         169.5000

          OUT:                                     OUT:
          ----                                     ----
              UZF ET =   778324157.3567                UZF ET =         104.4953
        UZF RECHARGE =   114534509.7488          UZF RECHARGE =          27.4989

            IN - OUT =  -246244438.5703              IN - OUT =          37.5059

          STORAGE:                                 STORAGE:
          --------                                 --------
      STORAGE CHANGE =  -246098368.6040        STORAGE CHANGE =          37.5625

 PERCENT DISCREPANCY IS DIFFERENCE BETWEEN IN-OUT MINUS CHANGE IN STORAGE
 DIVIDED BY THE AVERAGE OF IN AND OUT TIMES 100

 PERCENT DISCREPANCY =           0.00     PERCENT DISCREPANCY =          -0.03









 STREAM LISTING     PERIOD      4   STEP       10

 LAYER ROW COL. STREAM  RCH.  FLOW INTO     FLOW TO   FLOW OUT OF   OVRLND.     DIRECT     STREAM       STREAM     STREAM     STREAM   STREAMBED  STREAMBED
                SEG.NO.  NO.  STRM. RCH.    AQUIFER    STRM. RCH.    RUNOFF     PRECIP       ET          HEAD       DEPTH      WIDTH   CONDCTNC.   GRADIENT

   1    1    1     1     1    2.5000E+01  9.9469E-01   2.4005E+01  0.000E+00  0.000E+00  0.000E+00  1.09422E+03  1.173E+00  1.296E+01  5.833E-01  5.684E-01
   1    2    2     1     2    2.4005E+01  3.0141E+00   2.0991E+01  0.000E+00  0.000E+00  0.000E+00  1.08920E+03  1.142E+00  1.255E+01  8.784E-01  1.144E+00
   1    3    3     1     3    2.0991E+01  2.9123E+00   1.8079E+01  0.000E+00  0.000E+00  0.000E+00  1.08351E+03  1.093E+00  1.186E+01  7.116E-01  1.364E+00
   1    3    4     1     4    1.8079E+01  2.4742E+00   1.5605E+01  0.000E+00  0.000E+00  0.000E+00  1.07845E+03  1.047E+00  1.102E+01  6.114E-01  1.349E+00
   1    4    5     2     1    5.6047E+00  2.6663E+00   2.9384E+00  0.000E+00  0.000E+00  0.000E+00  1.07235E+03  4.183E-01  1.200E+01  7.800E-01  1.139E+00
   1    5    6     2     2    2.9384E+00  1.9573E+00   9.8118E-01  0.000E+00  0.000E+00  0.000E+00  1.06677E+03  2.621E-01  1.200E+01  6.000E-01  1.087E+00
   1    6    6     2     3    9.8118E-01  9.8118E-01   0.0000E+00  0.000E+00  0.000E+00  0.000E+00  1.06181E+03  1.947E-02  1.200E+01  6.000E-01  1.006E+00
   1    7    6     2     4    0.0000E+00  0.0000E+00   0.0000E+00  0.000E+00  0.000E+00  0.000E+00  1.05708E+03  0.000E+00  1.200E+01  6.000E-01  1.000E+00
   1    8    6     2     5    0.0000E+00  0.0000E+00   0.0000E+00  0.000E+00  0.000E+00  0.000E+00  1.05236E+03  0.000E+00  1.200E+01  6.000E-01  1.000E+00
   1    3    5     3     1    1.0000E+01  2.1434E+00   7.8566E+00  0.000E+00  0.000E+00  0.000E+00  1.07555E+03  1.909E+00  9.636E+00  7.227E-01  1.483E+00
   1    3    6     3     2    7.8566E+00  7.2689E-01   7.1297E+00  0.000E+00  0.000E+00  0.000E+00  1.07264E+03  1.727E+00  8.909E+00  6.682E-01  5.439E-01
   1    3    7     3     3    7.1297E+00  3.2473E-01   6.8050E+00  0.000E+00  0.000E+00  0.000E+00  1.06987E+03  1.555E+00  8.218E+00  5.547E-01  2.927E-01
   1    4    8     3     4    6.8050E+00  1.5875E+00   5.2175E+00  0.000E+00  0.000E+00  0.000E+00  1.06682E+03  1.364E+00  7.455E+00  6.709E-01  1.183E+00
   1    5    8     3     5    5.2175E+00  1.5790E+00   3.6385E+00  0.000E+00  0.000E+00  0.000E+00  1.06362E+03  1.164E+00  6.655E+00  4.991E-01  1.582E+00
   1    6    8     3     6    3.6385E+00  5.5980E-01   3.0787E+00  0.000E+00  0.000E+00  0.000E+00  1.06158E+03  1.036E+00  6.145E+00  1.844E-01  1.518E+00
   1    5   10     4     1    1.0000E+01  9.0525E-01   9.0947E+00  0.000E+00  0.000E+00  0.000E+00  1.07835E+03  6.210E-01  1.000E+01  2.500E-01  1.207E+00
   1    5    9     4     2    9.0947E+00  1.7835E+00   7.3113E+00  0.000E+00  0.000E+00  0.000E+00  1.07148E+03  5.670E-01  1.000E+01  5.000E-01  1.189E+00
   1    6    8     4     3    7.3113E+00  1.2257E+00   6.0855E+00  0.000E+00  0.000E+00  0.000E+00  1.06368E+03  5.021E-01  1.000E+01  3.500E-01  1.167E+00
   1    6    8     5     1    9.1643E+00  1.2264E+00   7.9379E+00  0.000E+00  0.000E+00  0.000E+00  1.05864E+03  6.358E-01  1.377E+01  5.509E-01  7.421E-01
   1    7    7     5     2    7.9379E+00  2.1642E+00   5.7737E+00  0.000E+00  0.000E+00  0.000E+00  1.05409E+03  5.885E-01  1.206E+01  6.031E-01  1.196E+00
   1    8    7     5     3    5.7737E+00  1.2554E+00   4.5183E+00  0.000E+00  0.000E+00  0.000E+00  1.04978E+03  5.323E-01  1.015E+01  3.554E-01  1.177E+00
   1    8    6     5     4    4.5183E+00  7.7705E-01   3.7413E+00  0.000E+00  0.000E+00  0.000E+00  1.04674E+03  4.928E-01  8.899E+00  2.225E-01  1.164E+00
   1    9    6     6     1    3.7413E+00  1.9946E+00   1.7467E+00  0.000E+00  0.000E+00  0.000E+00  1.04305E+03  3.243E-01  1.200E+01  6.000E-01  1.108E+00
   1   10    7     6     2    1.7467E+00  1.7467E+00   0.0000E+00  0.000E+00  0.000E+00  0.000E+00  1.03824E+03  5.565E-02  1.200E+01  6.000E-01  1.019E+00
   1   11    7     6     3    0.0000E+00  0.0000E+00   0.0000E+00  0.000E+00  0.000E+00  0.000E+00  1.03364E+03  0.000E+00  1.200E+01  6.000E-01  1.000E+00
   1   12    7     6     4    0.0000E+00  0.0000E+00   0.0000E+00  0.000E+00  0.000E+00  0.000E+00  1.02909E+03  0.000E+00  1.200E+01  6.000E-01  3.355E-01
   1   13    7     6     5    0.0000E+00 -8.0102E-01   8.0102E-01  0.000E+00  0.000E+00  0.000E+00  1.02591E+03  0.000E+00  1.200E+01  2.400E-01 -1.113E+00
   1   14    9     7     1    1.5000E+02  1.9504E+00   1.4805E+02  0.000E+00  0.000E+00  0.000E+00  1.03987E+03  2.286E+00  5.529E+01  5.592E+00  1.163E-01
   1   13    8     7     2    1.4805E+02  2.9612E+00   1.4509E+02  0.000E+00  0.000E+00  0.000E+00  1.03477E+03  2.273E+00  5.523E+01  6.144E+00  1.606E-01
   1   13    7     7     3    1.4509E+02  2.4060E+00   1.4268E+02  0.000E+00  0.000E+00  0.000E+00  1.02968E+03  2.259E+00  5.516E+01  5.579E+00  1.438E-01
   1   13    6     8     1    1.4348E+02  6.2449E-01   1.4286E+02  0.000E+00  0.000E+00  0.000E+00  1.02464E+03  2.768E+00  4.014E+01  4.090E+00  5.090E-02
   1   13    5     8     2    1.4286E+02 -2.4721E+00   1.4533E+02  0.000E+00  0.000E+00  0.000E+00  1.01840E+03  2.775E+00  4.023E+01  4.100E+00 -2.010E-01
   1   13    4     8     3    1.4533E+02 -4.2598E+00   1.4959E+02  0.000E+00  0.000E+00  0.000E+00  1.01217E+03  2.799E+00  4.058E+01  4.136E+00 -3.433E-01
   1   13    3     8     4    1.4959E+02 -4.5439E+00   1.5413E+02  0.000E+00  0.000E+00  0.000E+00  1.00595E+03  2.830E+00  4.103E+01  4.181E+00 -3.622E-01
   1   13    2     8     5    1.5413E+02 -2.1026E+00   1.5624E+02  0.000E+00  0.000E+00  0.000E+00  9.99728E+02  2.853E+00  4.137E+01  4.216E+00 -1.663E-01
   1   13    1     8     6    1.5624E+02 -4.7564E-01   1.5671E+02  0.000E+00  0.000E+00  0.000E+00  9.94737E+02  2.862E+00  4.150E+01  2.537E+00 -6.249E-02



1
  VOLUMETRIC BUDGET FOR ENTIRE MODEL AT END OF TIME STEP 10 IN STRESS PERIOD   4
  ------------------------------------------------------------------------------

     CUMULATIVE VOLUMES      L**3       RATES FOR THIS TIME STEP      L**3/T
     ------------------                 ------------------------

           IN:                                      IN:
           ---                                      ---
             STORAGE =      565631.0000               STORAGE =           0.1440
       CONSTANT HEAD =           0.0000         CONSTANT HEAD =           0.0000
               WELLS =           0.0000                 WELLS =           0.0000
     HEAD DEP BOUNDS =     1922625.0000       HEAD DEP BOUNDS =           0.2083
        UZF RECHARGE =   114534528.0000          UZF RECHARGE =          27.4989
               GW ET =           0.0000                 GW ET =           0.0000
     SURFACE LEAKAGE =           0.0000       SURFACE LEAKAGE =           0.0000
      STREAM LEAKAGE =   401558560.0000        STREAM LEAKAGE =          42.9420

            TOTAL IN =   518581344.0000              TOTAL IN =          70.7931

          OUT:                                     OUT:
          ----                                     ----
             STORAGE =   105507192.0000               STORAGE =          30.7877
       CONSTANT HEAD =           0.0000         CONSTANT HEAD =           0.0000
               WELLS =   144582304.0000                 WELLS =          10.0000
     HEAD DEP BOUNDS =     2412753.5000       HEAD DEP BOUNDS =           0.2631
        UZF RECHARGE =           0.0000          UZF RECHARGE =           0.0000
               GW ET =   146515104.0000                 GW ET =          15.0832
     SURFACE LEAKAGE =           0.0000       SURFACE LEAKAGE =           0.0000
      STREAM LEAKAGE =   119450200.0000        STREAM LEAKAGE =          14.6551

           TOTAL OUT =   518467552.0000             TOTAL OUT =          70.7891

            IN - OUT =      113792.0000              IN - OUT =       3.9902E-03

 PERCENT DISCREPANCY =           0.02     PERCENT DISCREPANCY =           0.01






          TIME SUMMARY AT END OF TIME STEP  10 IN STRESS PERIOD    4
                    SECONDS     MINUTES      HOURS       DAYS        YEARS
                    -----------------------------------------------------------
   TIME STEP LENGTH 1.95033E+05  3250.6      54.176      2.2573     6.18023E-03
 STRESS PERIOD TIME 1.31823E+06  21971.      366.18      15.257     4.17723E-02
         TOTAL TIME 9.20223E+06 1.53371E+05  2556.2      106.51     0.29160    
1
 
 SOLVING FOR HEAD 
    14 ITERATIONS FOR TIME STEP  11 IN STRESS PERIOD    4

 MAXIMUM HEAD CHANGE FOR EACH ITERATION:

    HEAD CHANGE   HEAD CHANGE   HEAD CHANGE   HEAD CHANGE   HEAD CHANGE
  LAYER,ROW,COL LAYER,ROW,COL LAYER,ROW,COL LAYER,ROW,COL LAYER,ROW,COL
 ----------------------------------------------------------------------
     0.9242E-01    0.5661E-01    0.3473E-01    0.2130E-01    0.1305E-01
  (  1,  3,  5) (  1,  3,  5) (  1,  3,  5) (  1,  3,  5) (  1,  3,  5)
     0.7979E-02    0.4907E-02    0.3061E-02    0.1900E-02    0.1177E-02
  (  1,  3,  5) (  1,  3,  5) (  1,  3,  6) (  1,  3,  6) (  1,  3,  6)
     0.7862E-03    0.4631E-03    0.2768E-03    0.1781E-03
  (  1,  3,  6) (  1,  3,  6) (  1,  3,  6) (  1,  3,  6)


 NO OUTPUT CONTROL FOR STRESS PERIOD    4   TIME STEP  11
 
 SOLVING FOR HEAD 
    14 ITERATIONS FOR TIME STEP  12 IN STRESS PERIOD    4

 MAXIMUM HEAD CHANGE FOR EACH ITERATION:

    HEAD CHANGE   HEAD CHANGE   HEAD CHANGE   HEAD CHANGE   HEAD CHANGE
  LAYER,ROW,COL LAYER,ROW,COL LAYER,ROW,COL LAYER,ROW,COL LAYER,ROW,COL
 ----------------------------------------------------------------------
     0.8268E-01    0.5059E-01    0.3089E-01    0.1892E-01    0.1158E-01
  (  1,  3,  5) (  1,  3,  5) (  1,  3,  5) (  1,  3,  5) (  1,  3,  5)
     0.7128E-02    0.4438E-02    0.2760E-02    0.1755E-02    0.1086E-02
  (  1,  3,  6) (  1,  3,  6) (  1,  3,  6) (  1,  3,  6) (  1,  3,  6)
     0.6844E-03    0.4045E-03    0.2806E-03    0.1722E-03
  (  1,  3,  6) (  1,  3,  6) (  1,  3,  6) (  1,  3,  5)


 NO OUTPUT CONTROL FOR STRESS PERIOD    4   TIME STEP  12
 
 SOLVING FOR HEAD 
    14 ITERATIONS FOR TIME STEP  13 IN STRESS PERIOD    4

 MAXIMUM HEAD CHANGE FOR EACH ITERATION:

    HEAD CHANGE   HEAD CHANGE   HEAD CHANGE   HEAD CHANGE   HEAD CHANGE
  LAYER,ROW,COL LAYER,ROW,COL LAYER,ROW,COL LAYER,ROW,COL LAYER,ROW,COL
 ----------------------------------------------------------------------
     0.6951E-01    0.4219E-01    0.2556E-01    0.1569E-01    0.9712E-02
  (  1,  3,  5) (  1,  3,  5) (  1,  3,  5) (  1,  3,  6) (  1,  3,  6)
     0.6030E-02    0.3758E-02    0.2282E-02    0.1403E-02    0.8623E-03
  (  1,  3,  6) (  1,  3,  6) (  1,  3,  6) (  1,  3,  6) (  1,  3,  6)
     0.5359E-03    0.3261E-03    0.2111E-03    0.1156E-03
  (  1,  3,  6) (  1,  3,  6) (  1,  3,  6) (  1,  3,  6)


 NO OUTPUT CONTROL FOR STRESS PERIOD    4   TIME STEP  13
 
 SOLVING FOR HEAD 
    13 ITERATIONS FOR TIME STEP  14 IN STRESS PERIOD    4

 MAXIMUM HEAD CHANGE FOR EACH ITERATION:

    HEAD CHANGE   HEAD CHANGE   HEAD CHANGE   HEAD CHANGE   HEAD CHANGE
  LAYER,ROW,COL LAYER,ROW,COL LAYER,ROW,COL LAYER,ROW,COL LAYER,ROW,COL
 ----------------------------------------------------------------------
     0.5916E-01    0.3647E-01    0.2237E-01    0.1379E-01    0.8564E-02
  (  1,  3,  6) (  1,  3,  6) (  1,  3,  6) (  1,  3,  6) (  1,  3,  6)
     0.5211E-02    0.3263E-02    0.2001E-02    0.1193E-02    0.7140E-03
  (  1,  3,  6) (  1,  3,  6) (  1,  3,  6) (  1,  3,  6) (  1,  3,  6)
     0.4595E-03    0.3287E-03    0.1446E-03
  (  1,  3,  6) (  1,  3,  6) (  1,  3,  6)


 NO OUTPUT CONTROL FOR STRESS PERIOD    4   TIME STEP  14
 
 SOLVING FOR HEAD 
    13 ITERATIONS FOR TIME STEP  15 IN STRESS PERIOD    4

 MAXIMUM HEAD CHANGE FOR EACH ITERATION:

    HEAD CHANGE   HEAD CHANGE   HEAD CHANGE   HEAD CHANGE   HEAD CHANGE
  LAYER,ROW,COL LAYER,ROW,COL LAYER,ROW,COL LAYER,ROW,COL LAYER,ROW,COL
 ----------------------------------------------------------------------
     0.5322E-01    0.3197E-01    0.1960E-01    0.1198E-01    0.7332E-02
  (  1,  3,  7) (  1,  3,  6) (  1,  3,  6) (  1,  3,  6) (  1,  3,  6)
     0.4492E-02    0.2714E-02    0.1664E-02    0.1023E-02    0.6359E-03
  (  1,  3,  6) (  1,  3,  6) (  1,  3,  6) (  1,  3,  6) (  1,  3,  6)
     0.3846E-03    0.2497E-03    0.1358E-03
  (  1,  3,  6) (  1,  3,  6) (  1,  3,  6)


 OUTPUT CONTROL FOR STRESS PERIOD    4   TIME STEP  15
    PRINT BUDGET
    PRINT HEAD FOR ALL LAYERS
    SAVE HEAD FOR ALL LAYERS
    SAVE BUDGET

            WELLS   PERIOD    4   STEP  15
 WELL      1   LAYER   1   ROW     6   COL     4   RATE    -1.00000    
 WELL      2   LAYER   1   ROW     6   COL     5   RATE    -1.00000    
 WELL      3   LAYER   1   ROW     7   COL     4   RATE    -1.00000    
 WELL      4   LAYER   1   ROW     7   COL     5   RATE    -1.00000    
 WELL      5   LAYER   1   ROW     8   COL     4   RATE    -1.00000    
 WELL      6   LAYER   1   ROW     8   COL     5   RATE    -1.00000    
 WELL      7   LAYER   1   ROW     9   COL     4   RATE    -1.00000    
 WELL      8   LAYER   1   ROW     9   COL     5   RATE    -1.00000    
 WELL      9   LAYER   1   ROW    10   COL     4   RATE    -1.00000    
 WELL     10   LAYER   1   ROW    10   COL     5   RATE    -1.00000    

  HEAD DEP BOUNDS   PERIOD    4   STEP  15
 BOUNDARY      1   LAYER   1   ROW    13   COL     1   RATE   -0.263660    
 BOUNDARY      2   LAYER   1   ROW    14   COL     9   RATE    0.208306    
 UBDSV3 SAVING "           GW ET" ON UNIT  61 AT TIME STEP 15, STRESS PERIOD   4
 UBDSV3 SAVING "    UZF RECHARGE" ON UNIT  61 AT TIME STEP 15, STRESS PERIOD   4
 UBDSV3 SAVING " SURFACE LEAKAGE" ON UNIT  61 AT TIME STEP 15, STRESS PERIOD   4


UNSATURATED ZONE PACKAGE VOLUMETRIC BUDGET FOR  TIME STEP   15 STRESS PERIOD    4
  ------------------------------------------------------------------------------



     CUMULATIVE VOLUMES      L**3       RATES FOR THIS TIME STEP      L**3/T
     ------------------                 ------------------------

           IN:                                      IN:
           ---                                      ---
        INFILTRATION =   868619630.7227          INFILTRATION =         169.5000

          OUT:                                     OUT:
          ----                                     ----
              UZF ET =   897564195.1599                UZF ET =          91.5081
        UZF RECHARGE =   149052561.7541          UZF RECHARGE =          25.7774

            IN - OUT =  -177997126.1914              IN - OUT =          52.2145

          STORAGE:                                 STORAGE:
          --------                                 --------
      STORAGE CHANGE =  -177799677.2678        STORAGE CHANGE =          52.2249

 PERCENT DISCREPANCY IS DIFFERENCE BETWEEN IN-OUT MINUS CHANGE IN STORAGE
 DIVIDED BY THE AVERAGE OF IN AND OUT TIMES 100

 PERCENT DISCREPANCY =           0.00     PERCENT DISCREPANCY =          -0.01









 STREAM LISTING     PERIOD      4   STEP       15

 LAYER ROW COL. STREAM  RCH.  FLOW INTO     FLOW TO   FLOW OUT OF   OVRLND.     DIRECT     STREAM       STREAM     STREAM     STREAM   STREAMBED  STREAMBED
                SEG.NO.  NO.  STRM. RCH.    AQUIFER    STRM. RCH.    RUNOFF     PRECIP       ET          HEAD       DEPTH      WIDTH   CONDCTNC.   GRADIENT

   1    1    1     1     1    2.5000E+01  9.8772E-01   2.4012E+01  0.000E+00  0.000E+00  0.000E+00  1.09422E+03  1.173E+00  1.296E+01  5.834E-01  5.644E-01
   1    2    2     1     2    2.4012E+01  3.0042E+00   2.1008E+01  0.000E+00  0.000E+00  0.000E+00  1.08920E+03  1.142E+00  1.255E+01  8.786E-01  1.140E+00
   1    3    3     1     3    2.1008E+01  2.9137E+00   1.8094E+01  0.000E+00  0.000E+00  0.000E+00  1.08351E+03  1.093E+00  1.187E+01  7.119E-01  1.364E+00
   1    3    4     1     4    1.8094E+01  2.4754E+00   1.5619E+01  0.000E+00  0.000E+00  0.000E+00  1.07845E+03  1.047E+00  1.102E+01  6.117E-01  1.349E+00
   1    4    5     2     1    5.6190E+00  2.6669E+00   2.9520E+00  0.000E+00  0.000E+00  0.000E+00  1.07235E+03  4.191E-01  1.200E+01  7.800E-01  1.140E+00
   1    5    6     2     2    2.9520E+00  1.9579E+00   9.9414E-01  0.000E+00  0.000E+00  0.000E+00  1.06677E+03  2.632E-01  1.200E+01  6.000E-01  1.088E+00
   1    6    6     2     3    9.9414E-01  9.9414E-01   0.0000E+00  0.000E+00  0.000E+00  0.000E+00  1.06181E+03  1.962E-02  1.200E+01  6.000E-01  1.007E+00
   1    7    6     2     4    0.0000E+00  0.0000E+00   0.0000E+00  0.000E+00  0.000E+00  0.000E+00  1.05708E+03  0.000E+00  1.200E+01  6.000E-01  1.000E+00
   1    8    6     2     5    0.0000E+00  0.0000E+00   0.0000E+00  0.000E+00  0.000E+00  0.000E+00  1.05236E+03  0.000E+00  1.200E+01  6.000E-01  1.000E+00
   1    3    5     3     1    1.0000E+01  1.4906E+00   8.5094E+00  0.000E+00  0.000E+00  0.000E+00  1.07555E+03  1.909E+00  9.636E+00  7.227E-01  1.031E+00
   1    3    6     3     2    8.5094E+00  1.3788E-01   8.3715E+00  0.000E+00  0.000E+00  0.000E+00  1.07264E+03  1.727E+00  8.909E+00  6.682E-01  1.032E-01
   1    3    7     3     3    8.3715E+00 -7.0134E-02   8.4416E+00  0.000E+00  0.000E+00  0.000E+00  1.06987E+03  1.555E+00  8.218E+00  5.547E-01 -6.321E-02
   1    4    8     3     4    8.4416E+00  1.5831E+00   6.8586E+00  0.000E+00  0.000E+00  0.000E+00  1.06682E+03  1.364E+00  7.455E+00  6.709E-01  1.180E+00
   1    5    8     3     5    6.8586E+00  1.5790E+00   5.2796E+00  0.000E+00  0.000E+00  0.000E+00  1.06362E+03  1.164E+00  6.655E+00  4.991E-01  1.582E+00
   1    6    8     3     6    5.2796E+00  5.5980E-01   4.7198E+00  0.000E+00  0.000E+00  0.000E+00  1.06158E+03  1.036E+00  6.145E+00  1.844E-01  1.518E+00
   1    5   10     4     1    1.0000E+01  9.0525E-01   9.0947E+00  0.000E+00  0.000E+00  0.000E+00  1.07835E+03  6.210E-01  1.000E+01  2.500E-01  1.207E+00
   1    5    9     4     2    9.0947E+00  1.7835E+00   7.3113E+00  0.000E+00  0.000E+00  0.000E+00  1.07148E+03  5.670E-01  1.000E+01  5.000E-01  1.189E+00
   1    6    8     4     3    7.3113E+00  1.2257E+00   6.0855E+00  0.000E+00  0.000E+00  0.000E+00  1.06368E+03  5.021E-01  1.000E+01  3.500E-01  1.167E+00
   1    6    8     5     1    1.0805E+01  1.3312E+00   9.4741E+00  0.000E+00  0.000E+00  0.000E+00  1.05867E+03  6.749E-01  1.525E+01  6.102E-01  7.272E-01
   1    7    7     5     2    9.4741E+00  2.4453E+00   7.0289E+00  0.000E+00  0.000E+00  0.000E+00  1.05413E+03  6.279E-01  1.348E+01  6.740E-01  1.209E+00
   1    8    7     5     3    7.0289E+00  1.4348E+00   5.5941E+00  0.000E+00  0.000E+00  0.000E+00  1.04982E+03  5.717E-01  1.148E+01  4.017E-01  1.191E+00
   1    8    6     5     4    5.5941E+00  8.9667E-01   4.6974E+00  0.000E+00  0.000E+00  0.000E+00  1.04678E+03  5.323E-01  1.015E+01  2.539E-01  1.177E+00
   1    9    6     6     1    4.6974E+00  2.0321E+00   2.6653E+00  0.000E+00  0.000E+00  0.000E+00  1.04311E+03  3.869E-01  1.200E+01  6.000E-01  1.129E+00
   1   10    7     6     2    2.6653E+00  1.9456E+00   7.1966E-01  0.000E+00  0.000E+00  0.000E+00  1.03842E+03  2.427E-01  1.200E+01  6.000E-01  1.081E+00
   1   11    7     6     3    7.1966E-01  7.1966E-01   0.0000E+00  0.000E+00  0.000E+00  0.000E+00  1.03367E+03  3.269E-02  1.200E+01  6.000E-01  1.011E+00
   1   12    7     6     4    0.0000E+00  0.0000E+00   0.0000E+00  0.000E+00  0.000E+00  0.000E+00  1.02909E+03  0.000E+00  1.200E+01  6.000E-01  3.196E-01
   1   13    7     6     5    0.0000E+00 -8.2064E-01   8.2064E-01  0.000E+00  0.000E+00  0.000E+00  1.02591E+03  0.000E+00  1.200E+01  2.400E-01 -1.140E+00
   1   14    9     7     1    1.5000E+02  1.9489E+00   1.4805E+02  0.000E+00  0.000E+00  0.000E+00  1.03987E+03  2.286E+00  5.529E+01  5.592E+00  1.162E-01
   1   13    8     7     2    1.4805E+02  2.9384E+00   1.4511E+02  0.000E+00  0.000E+00  0.000E+00  1.03477E+03  2.273E+00  5.523E+01  6.144E+00  1.594E-01
   1   13    7     7     3    1.4511E+02  1.9577E+00   1.4315E+02  0.000E+00  0.000E+00  0.000E+00  1.02968E+03  2.260E+00  5.517E+01  5.579E+00  1.170E-01
   1   13    6     8     1    1.4398E+02  2.6004E-01   1.4372E+02  0.000E+00  0.000E+00  0.000E+00  1.02465E+03  2.773E+00  4.021E+01  4.097E+00  2.116E-02
   1   13    5     8     2    1.4372E+02 -2.6021E+00   1.4632E+02  0.000E+00  0.000E+00  0.000E+00  1.01841E+03  2.781E+00  4.033E+01  4.110E+00 -2.111E-01
   1   13    4     8     3    1.4632E+02 -4.3626E+00   1.5068E+02  0.000E+00  0.000E+00  0.000E+00  1.01218E+03  2.806E+00  4.069E+01  4.146E+00 -3.507E-01
   1   13    3     8     4    1.5068E+02 -4.6391E+00   1.5532E+02  0.000E+00  0.000E+00  0.000E+00  1.00596E+03  2.838E+00  4.115E+01  4.193E+00 -3.688E-01
   1   13    2     8     5    1.5532E+02 -2.1152E+00   1.5743E+02  0.000E+00  0.000E+00  0.000E+00  9.99736E+02  2.861E+00  4.149E+01  4.228E+00 -1.668E-01
   1   13    1     8     6    1.5743E+02 -4.9194E-01   1.5793E+02  0.000E+00  0.000E+00  0.000E+00  9.94745E+02  2.870E+00  4.162E+01  2.545E+00 -6.444E-02



1
              HEAD IN LAYER   1 AT END OF TIME STEP  15 IN STRESS PERIOD    4
  ---------------------------------------------------------------------------

           1       2       3       4       5       6       7       8       9      10
 ...................................................................................
   1  1092.53 1088.69 6999.00 6999.00 6999.00 6999.00 6999.00 6999.00 6999.00 6999.00
   2  1089.19 1085.78 1079.11 6999.00 6999.00 1071.88 1071.05 1070.40 6999.00 6999.00
   3  6999.00 1077.40 1074.31 1070.19 1073.48 1072.43 1070.00 1068.03 6999.00 6999.00
   4  1067.82 1068.32 1066.51 1062.93 1061.90 1060.65 1061.45 1064.46 1063.77 6999.00
   5  1063.68 1061.24 1058.50 1056.43 1056.20 1056.88 1056.92 1059.30 1062.91 1065.33
   6  1058.99 1055.29 1052.05 1050.17 1050.52 1052.25 1053.76 1056.49 1059.29 1063.63
   7  1055.33 1049.61 1046.15 1044.48 1045.16 1047.21 1050.00 1052.51 1054.08 6999.00
   8  6999.00 1042.26 1040.07 1038.89 1039.85 1042.13 1044.19 1046.96 1049.12 6999.00
   9  6999.00 1035.33 1034.10 1033.57 1034.85 1037.26 1038.34 1040.47 1043.70 6999.00
  10  6999.00 1028.31 1028.20 1028.77 1030.31 1032.43 1034.15 1035.97 1039.95 1044.37
  11  6999.00 1019.59 1021.05 1024.33 1026.43 1028.63 1030.36 1032.69 1036.24 6999.00
  12  1001.16 1008.82 1014.05 1018.81 1022.47 1025.72 1028.13 1031.04 1034.83 6999.00
  13   994.94 1000.24 1007.07 1013.23 1019.04 1024.58 1029.33 1034.29 1036.48 6999.00
  14  6999.00 1005.82 1011.51 1016.23 1021.26 1026.08 1030.47 1035.35 1039.52 6999.00
  15  6999.00 6999.00 1018.83 1021.82 1025.56 1028.54 6999.00 6999.00 6999.00 6999.00

 HEAD WILL BE SAVED ON UNIT   58 AT END OF TIME STEP  15, STRESS PERIOD    4
1
  VOLUMETRIC BUDGET FOR ENTIRE MODEL AT END OF TIME STEP 15 IN STRESS PERIOD   4
  ------------------------------------------------------------------------------

     CUMULATIVE VOLUMES      L**3       RATES FOR THIS TIME STEP      L**3/T
     ------------------                 ------------------------

           IN:                                      IN:
           ---                                      ---
             STORAGE =      698688.1875               STORAGE =       8.1612E-02
       CONSTANT HEAD =           0.0000         CONSTANT HEAD =           0.0000
               WELLS =           0.0000                 WELLS =           0.0000
     HEAD DEP BOUNDS =     2195461.5000       HEAD DEP BOUNDS =           0.2083
        UZF RECHARGE =   149052576.0000          UZF RECHARGE =          25.7774
               GW ET =           0.0000                 GW ET =           0.0000
     SURFACE LEAKAGE =           0.0000       SURFACE LEAKAGE =           0.0000
      STREAM LEAKAGE =   457175488.0000        STREAM LEAKAGE =          42.1752

            TOTAL IN =   609122176.0000              TOTAL IN =          68.2425

          OUT:                                     OUT:
          ----                                     ----
             STORAGE =   142954752.0000               STORAGE =          27.4121
       CONSTANT HEAD =           0.0000         CONSTANT HEAD =           0.0000
               WELLS =   157679968.0000                 WELLS =          10.0000
     HEAD DEP BOUNDS =     2757654.2500       HEAD DEP BOUNDS =           0.2637
        UZF RECHARGE =           0.0000          UZF RECHARGE =           0.0000
               GW ET =   166615680.0000                 GW ET =          15.4817
     SURFACE LEAKAGE =           0.0000       SURFACE LEAKAGE =           0.0000
      STREAM LEAKAGE =   138991536.0000        STREAM LEAKAGE =          15.1018

           TOTAL OUT =   608999616.0000             TOTAL OUT =          68.2593

            IN - OUT =      122560.0000              IN - OUT =      -1.6853E-02

 PERCENT DISCREPANCY =           0.02     PERCENT DISCREPANCY =          -0.02






          TIME SUMMARY AT END OF TIME STEP  15 IN STRESS PERIOD    4
                    SECONDS     MINUTES      HOURS       DAYS        YEARS
                    -----------------------------------------------------------
   TIME STEP LENGTH 3.14103E+05  5235.0      87.251      3.6354     9.95332E-03
 STRESS PERIOD TIME 2.62800E+06  43800.      730.00      30.417     8.32763E-02
         TOTAL TIME 1.05120E+07 1.75200E+05  2920.0      121.67     0.33311    
1
1
                            STRESS PERIOD NO.    5, LENGTH =   2628000.    
                            -----------------------------------------------

                              NUMBER OF TIME STEPS =    15

                               MULTIPLIER FOR DELT =     1.100

                            INITIAL TIME STEP SIZE =   82713.07    

 WELL NO.  LAYER   ROW   COL   STRESS RATE         
 --------------------------------------------------
      1      1      6      4      -3.000    
      2      1      6      5      -3.000    
      3      1      7      4      -3.000    
      4      1      7      5      -3.000    
      5      1      8      4      -3.000    
      6      1      8      5      -3.000    
      7      1      9      4      -3.000    
      8      1      9      5      -3.000    
      9      1     10      4      -3.000    
     10      1     10      5      -3.000    

     10 WELLS

 REUSING NON-PARAMETER GHB CELLS FROM LAST STRESS PERIOD

      2 GHB CELLS

 REUSING STREAM SEGMENT DATA FROM LAST STRESS PERIOD



            AREAL INFILTRATION RATE
 READING ON UNIT   19 WITH FORMAT: (10F4.0)            

            1           2           3           4           5           6           7           8           9          10
 ........................................................................................................................
   1   5.0000E-09  1.0000E-08   0.000       0.000       0.000       0.000       0.000       0.000       0.000       0.000    
   2   1.0000E-08  5.0000E-09  1.0000E-08   0.000       0.000      4.0000E-08  4.0000E-08  2.5000E-08   0.000       0.000    
   3    0.000      2.5000E-08  5.0000E-09  5.0000E-09  4.0000E-08  4.0000E-08  2.5000E-08  2.5000E-08   0.000       0.000    
   4   4.0000E-08  2.5000E-08  5.0000E-09  5.0000E-09  5.0000E-09  5.0000E-09  5.0000E-09  5.0000E-09  1.0000E-08   0.000    
   5   4.0000E-08  2.5000E-08  5.0000E-09  5.0000E-09  5.0000E-09  5.0000E-09  5.0000E-09  5.0000E-09  5.0000E-09  5.0000E-09
   6   4.0000E-08  2.5000E-08  2.5000E-08  1.0000E-08  1.0000E-08  5.0000E-09  5.0000E-09  5.0000E-09  5.0000E-09  2.5000E-08
   7   4.0000E-08  2.5000E-08  2.5000E-08  1.0000E-08  1.0000E-08  5.0000E-09  5.0000E-09  1.0000E-08  1.0000E-08   0.000    
   8    0.000      2.5000E-08  2.5000E-08  1.0000E-08  1.0000E-08  5.0000E-09  5.0000E-09  1.0000E-08  2.5000E-08   0.000    
   9    0.000      2.5000E-08  2.5000E-08  1.0000E-08  1.0000E-08  5.0000E-09  5.0000E-09  1.0000E-08  2.5000E-08   0.000    
  10    0.000      2.5000E-08  2.5000E-08  1.0000E-08  1.0000E-08  5.0000E-09  5.0000E-09  1.0000E-08  2.5000E-08  4.0000E-08
  11    0.000      5.0000E-09  5.0000E-09  5.0000E-09  5.0000E-09  5.0000E-09  5.0000E-09  1.0000E-08  2.5000E-08   0.000    
  12   5.0000E-09  5.0000E-09  5.0000E-09  5.0000E-09  5.0000E-09  5.0000E-09  5.0000E-09  5.0000E-09  1.0000E-08   0.000    
  13   5.0000E-09  5.0000E-09  1.0000E-08  1.0000E-08  1.0000E-08  1.0000E-08  1.0000E-08  5.0000E-09  5.0000E-09   0.000    
  14    0.000      1.0000E-08  2.5000E-08  2.5000E-08  2.5000E-08  2.5000E-08  2.5000E-08  1.0000E-08  5.0000E-09   0.000    
  15    0.000       0.000      4.0000E-08  4.0000E-08  4.0000E-08  4.0000E-08   0.000       0.000       0.000       0.000    

USING ET RATE FROM PREVIOUS STRESS PERIOD. CURRENT PERIOD IS:       5

 USING ET EXTINCTION DEPTH FROM PREVIOUS STRESS PERIOD. CURRENT PERIOD IS:       5

 USING EXTINCTION WATER CONTENT FROM PREVIOUS STRESS PERIOD. CURRENT PERIOD IS:       5
 
 SOLVING FOR HEAD 

    11 ITERATIONS FOR TIME STEP   1 IN STRESS PERIOD    5

 MAXIMUM HEAD CHANGE FOR EACH ITERATION:

    HEAD CHANGE   HEAD CHANGE   HEAD CHANGE   HEAD CHANGE   HEAD CHANGE
  LAYER,ROW,COL LAYER,ROW,COL LAYER,ROW,COL LAYER,ROW,COL LAYER,ROW,COL
 ----------------------------------------------------------------------
    -0.1979E-01    0.7372E-02    0.4874E-02    0.3074E-02    0.2013E-02
  (  1,  6,  5) (  1,  3,  6) (  1,  3,  6) (  1,  3,  6) (  1,  3,  6)
     0.1301E-02    0.8590E-03    0.5706E-03    0.4129E-03    0.2822E-03
  (  1,  3,  6) (  1,  3,  6) (  1,  3,  6) (  1,  3,  6) (  1,  3,  6)
     0.1560E-03
  (  1,  3,  6)


 NO OUTPUT CONTROL FOR STRESS PERIOD    5   TIME STEP   1
 
 SOLVING FOR HEAD 
    11 ITERATIONS FOR TIME STEP   2 IN STRESS PERIOD    5

 MAXIMUM HEAD CHANGE FOR EACH ITERATION:

    HEAD CHANGE   HEAD CHANGE   HEAD CHANGE   HEAD CHANGE   HEAD CHANGE
  LAYER,ROW,COL LAYER,ROW,COL LAYER,ROW,COL LAYER,ROW,COL LAYER,ROW,COL
 ----------------------------------------------------------------------
    -0.2174E-01    0.7559E-02    0.4904E-02    0.3172E-02    0.2058E-02
  (  1,  6,  4) (  1,  3,  7) (  1,  3,  6) (  1,  3,  6) (  1,  3,  6)
     0.1342E-02    0.8703E-03    0.5568E-03    0.3302E-03    0.2303E-03
  (  1,  3,  6) (  1,  3,  6) (  1,  3,  6) (  1,  3,  6) (  1,  3,  6)
     0.1555E-03
  (  1,  3,  6)


 NO OUTPUT CONTROL FOR STRESS PERIOD    5   TIME STEP   2
 
 SOLVING FOR HEAD 
    11 ITERATIONS FOR TIME STEP   3 IN STRESS PERIOD    5

 MAXIMUM HEAD CHANGE FOR EACH ITERATION:

    HEAD CHANGE   HEAD CHANGE   HEAD CHANGE   HEAD CHANGE   HEAD CHANGE
  LAYER,ROW,COL LAYER,ROW,COL LAYER,ROW,COL LAYER,ROW,COL LAYER,ROW,COL
 ----------------------------------------------------------------------
    -0.2325E-01    0.7867E-02    0.4958E-02    0.3213E-02    0.2082E-02
  (  1, 10,  4) (  1,  3,  7) (  1,  3,  6) (  1,  3,  6) (  1,  3,  6)
     0.1376E-02    0.8745E-03    0.5345E-03    0.3467E-03    0.2490E-03
  (  1,  3,  6) (  1,  3,  6) (  1,  3,  6) (  1,  3,  6) (  1,  3,  6)
     0.1694E-03
  (  1,  3,  6)


 NO OUTPUT CONTROL FOR STRESS PERIOD    5   TIME STEP   3
 
 SOLVING FOR HEAD 
    10 ITERATIONS FOR TIME STEP   4 IN STRESS PERIOD    5

 MAXIMUM HEAD CHANGE FOR EACH ITERATION:

    HEAD CHANGE   HEAD CHANGE   HEAD CHANGE   HEAD CHANGE   HEAD CHANGE
  LAYER,ROW,COL LAYER,ROW,COL LAYER,ROW,COL LAYER,ROW,COL LAYER,ROW,COL
 ----------------------------------------------------------------------
    -0.2490E-01    0.7744E-02    0.4453E-02    0.2831E-02    0.1796E-02
  (  1, 10,  4) (  1,  3,  7) (  1,  3,  7) (  1,  3,  5) (  1,  3,  5)
     0.1137E-02    0.7452E-03    0.4727E-03    0.2889E-03    0.1871E-03
  (  1,  3,  5) (  1,  3,  5) (  1,  3,  5) (  1,  3,  5) (  1,  3,  5)


 NO OUTPUT CONTROL FOR STRESS PERIOD    5   TIME STEP   4
 
 SOLVING FOR HEAD 
    11 ITERATIONS FOR TIME STEP   5 IN STRESS PERIOD    5

 MAXIMUM HEAD CHANGE FOR EACH ITERATION:

    HEAD CHANGE   HEAD CHANGE   HEAD CHANGE   HEAD CHANGE   HEAD CHANGE
  LAYER,ROW,COL LAYER,ROW,COL LAYER,ROW,COL LAYER,ROW,COL LAYER,ROW,COL
 ----------------------------------------------------------------------
    -0.3765E-01   -0.2127E-01   -0.1196E-01   -0.6841E-02   -0.3867E-02
  (  1,  3,  6) (  1,  3,  6) (  1,  3,  6) (  1,  3,  6) (  1,  3,  6)
    -0.2088E-02   -0.1182E-02   -0.7259E-03   -0.3521E-03   -0.2096E-03
  (  1,  3,  6) (  1,  3,  6) (  1,  3,  6) (  1,  3,  6) (  1,  3,  6)
    -0.1098E-03
  (  1,  3,  6)


 OUTPUT CONTROL FOR STRESS PERIOD    5   TIME STEP   5
    PRINT BUDGET
    SAVE BUDGET

            WELLS   PERIOD    5   STEP   5
 WELL      1   LAYER   1   ROW     6   COL     4   RATE    -3.00000    
 WELL      2   LAYER   1   ROW     6   COL     5   RATE    -3.00000    
 WELL      3   LAYER   1   ROW     7   COL     4   RATE    -3.00000    
 WELL      4   LAYER   1   ROW     7   COL     5   RATE    -3.00000    
 WELL      5   LAYER   1   ROW     8   COL     4   RATE    -3.00000    
 WELL      6   LAYER   1   ROW     8   COL     5   RATE    -3.00000    
 WELL      7   LAYER   1   ROW     9   COL     4   RATE    -3.00000    
 WELL      8   LAYER   1   ROW     9   COL     5   RATE    -3.00000    
 WELL      9   LAYER   1   ROW    10   COL     4   RATE    -3.00000    
 WELL     10   LAYER   1   ROW    10   COL     5   RATE    -3.00000    

  HEAD DEP BOUNDS   PERIOD    5   STEP   5
 BOUNDARY      1   LAYER   1   ROW    13   COL     1   RATE   -0.265269    
 BOUNDARY      2   LAYER   1   ROW    14   COL     9   RATE    0.208346    
 UBDSV3 SAVING "           GW ET" ON UNIT  61 AT TIME STEP  5, STRESS PERIOD   5
 UBDSV3 SAVING "    UZF RECHARGE" ON UNIT  61 AT TIME STEP  5, STRESS PERIOD   5
 UBDSV3 SAVING " SURFACE LEAKAGE" ON UNIT  61 AT TIME STEP  5, STRESS PERIOD   5


UNSATURATED ZONE PACKAGE VOLUMETRIC BUDGET FOR  TIME STEP    5 STRESS PERIOD    5
  ------------------------------------------------------------------------------



     CUMULATIVE VOLUMES      L**3       RATES FOR THIS TIME STEP      L**3/T
     ------------------                 ------------------------

           IN:                                      IN:
           ---                                      ---
        INFILTRATION =   890017801.6006          INFILTRATION =          42.3750

          OUT:                                     OUT:
          ----                                     ----
              UZF ET =   943264029.6361                UZF ET =          81.1196
        UZF RECHARGE =   160008547.1615          UZF RECHARGE =          16.8647

            IN - OUT =  -213254775.1970              IN - OUT =         -55.6093

          STORAGE:                                 STORAGE:
          --------                                 --------
      STORAGE CHANGE =  -213050630.8493        STORAGE CHANGE =         -55.6021

 PERCENT DISCREPANCY IS DIFFERENCE BETWEEN IN-OUT MINUS CHANGE IN STORAGE
 DIVIDED BY THE AVERAGE OF IN AND OUT TIMES 100

 PERCENT DISCREPANCY =           0.00     PERCENT DISCREPANCY =          -0.01









 STREAM LISTING     PERIOD      5   STEP        5

 LAYER ROW COL. STREAM  RCH.  FLOW INTO     FLOW TO   FLOW OUT OF   OVRLND.     DIRECT     STREAM       STREAM     STREAM     STREAM   STREAMBED  STREAMBED
                SEG.NO.  NO.  STRM. RCH.    AQUIFER    STRM. RCH.    RUNOFF     PRECIP       ET          HEAD       DEPTH      WIDTH   CONDCTNC.   GRADIENT

   1    1    1     1     1    2.5000E+01  9.8662E-01   2.4013E+01  0.000E+00  0.000E+00  0.000E+00  1.09422E+03  1.173E+00  1.296E+01  5.834E-01  5.637E-01
   1    2    2     1     2    2.4013E+01  3.0026E+00   2.1011E+01  0.000E+00  0.000E+00  0.000E+00  1.08920E+03  1.142E+00  1.255E+01  8.786E-01  1.139E+00
   1    3    3     1     3    2.1011E+01  2.9139E+00   1.8097E+01  0.000E+00  0.000E+00  0.000E+00  1.08351E+03  1.093E+00  1.187E+01  7.120E-01  1.364E+00
   1    3    4     1     4    1.8097E+01  2.4756E+00   1.5621E+01  0.000E+00  0.000E+00  0.000E+00  1.07845E+03  1.047E+00  1.102E+01  6.117E-01  1.349E+00
   1    4    5     2     1    5.6212E+00  2.6670E+00   2.9541E+00  0.000E+00  0.000E+00  0.000E+00  1.07235E+03  4.193E-01  1.200E+01  7.800E-01  1.140E+00
   1    5    6     2     2    2.9541E+00  1.9580E+00   9.9615E-01  0.000E+00  0.000E+00  0.000E+00  1.06677E+03  2.633E-01  1.200E+01  6.000E-01  1.088E+00
   1    6    6     2     3    9.9615E-01  9.9615E-01   0.0000E+00  0.000E+00  0.000E+00  0.000E+00  1.06183E+03  3.929E-02  1.200E+01  6.000E-01  1.013E+00
   1    7    6     2     4    0.0000E+00  0.0000E+00   0.0000E+00  0.000E+00  0.000E+00  0.000E+00  1.05708E+03  0.000E+00  1.200E+01  6.000E-01  1.000E+00
   1    8    6     2     5    0.0000E+00  0.0000E+00   0.0000E+00  0.000E+00  0.000E+00  0.000E+00  1.05236E+03  0.000E+00  1.200E+01  6.000E-01  1.000E+00
   1    3    5     3     1    1.0000E+01  1.4048E+00   8.5952E+00  0.000E+00  0.000E+00  0.000E+00  1.07555E+03  1.909E+00  9.636E+00  7.227E-01  9.718E-01
   1    3    6     3     2    8.5952E+00  1.2430E-01   8.4709E+00  0.000E+00  0.000E+00  0.000E+00  1.07264E+03  1.727E+00  8.909E+00  6.682E-01  9.301E-02
   1    3    7     3     3    8.4709E+00 -1.3082E-01   8.6018E+00  0.000E+00  0.000E+00  0.000E+00  1.06987E+03  1.555E+00  8.218E+00  5.547E-01 -1.179E-01
   1    4    8     3     4    8.6018E+00  1.5776E+00   7.0242E+00  0.000E+00  0.000E+00  0.000E+00  1.06682E+03  1.364E+00  7.455E+00  6.709E-01  1.176E+00
   1    5    8     3     5    7.0242E+00  1.5790E+00   5.4452E+00  0.000E+00  0.000E+00  0.000E+00  1.06362E+03  1.164E+00  6.655E+00  4.991E-01  1.582E+00
   1    6    8     3     6    5.4452E+00  5.5980E-01   4.8854E+00  0.000E+00  0.000E+00  0.000E+00  1.06158E+03  1.036E+00  6.145E+00  1.844E-01  1.518E+00
   1    5   10     4     1    1.0000E+01  9.0525E-01   9.0947E+00  0.000E+00  0.000E+00  0.000E+00  1.07835E+03  6.210E-01  1.000E+01  2.500E-01  1.207E+00
   1    5    9     4     2    9.0947E+00  1.7835E+00   7.3113E+00  0.000E+00  0.000E+00  0.000E+00  1.07148E+03  5.670E-01  1.000E+01  5.000E-01  1.189E+00
   1    6    8     4     3    7.3113E+00  1.2257E+00   6.0855E+00  0.000E+00  0.000E+00  0.000E+00  1.06368E+03  5.021E-01  1.000E+01  3.500E-01  1.167E+00
   1    6    8     5     1    1.0971E+01  1.3289E+00   9.6420E+00  0.000E+00  0.000E+00  0.000E+00  1.05868E+03  6.788E-01  1.540E+01  6.162E-01  7.189E-01
   1    7    7     5     2    9.6420E+00  2.4752E+00   7.1669E+00  0.000E+00  0.000E+00  0.000E+00  1.05413E+03  6.320E-01  1.363E+01  6.815E-01  1.211E+00
   1    8    7     5     3    7.1669E+00  1.4540E+00   5.7129E+00  0.000E+00  0.000E+00  0.000E+00  1.04983E+03  5.757E-01  1.162E+01  4.066E-01  1.192E+00
   1    8    6     5     4    5.7129E+00  9.0946E-01   4.8034E+00  0.000E+00  0.000E+00  0.000E+00  1.04679E+03  5.363E-01  1.029E+01  2.572E-01  1.179E+00
   1    9    6     6     1    4.8034E+00  2.0360E+00   2.7674E+00  0.000E+00  0.000E+00  0.000E+00  1.04312E+03  3.934E-01  1.200E+01  6.000E-01  1.131E+00
   1   10    7     6     2    2.7674E+00  1.9507E+00   8.1668E-01  0.000E+00  0.000E+00  0.000E+00  1.03843E+03  2.512E-01  1.200E+01  6.000E-01  1.084E+00
   1   11    7     6     3    8.1668E-01  8.1668E-01   0.0000E+00  0.000E+00  0.000E+00  0.000E+00  1.03367E+03  3.527E-02  1.200E+01  6.000E-01  1.012E+00
   1   12    7     6     4    0.0000E+00  0.0000E+00   0.0000E+00  0.000E+00  0.000E+00  0.000E+00  1.02909E+03  0.000E+00  1.200E+01  6.000E-01  3.119E-01
   1   13    7     6     5    0.0000E+00 -8.2406E-01   8.2406E-01  0.000E+00  0.000E+00  0.000E+00  1.02591E+03  0.000E+00  1.200E+01  2.400E-01 -1.145E+00
   1   14    9     7     1    1.5000E+02  1.9547E+00   1.4805E+02  0.000E+00  0.000E+00  0.000E+00  1.03987E+03  2.286E+00  5.529E+01  5.592E+00  1.165E-01
   1   13    8     7     2    1.4805E+02  2.9334E+00   1.4511E+02  0.000E+00  0.000E+00  0.000E+00  1.03477E+03  2.273E+00  5.523E+01  6.144E+00  1.591E-01
   1   13    7     7     3    1.4511E+02  1.8792E+00   1.4323E+02  0.000E+00  0.000E+00  0.000E+00  1.02968E+03  2.260E+00  5.517E+01  5.579E+00  1.123E-01
   1   13    6     8     1    1.4406E+02  1.9672E-01   1.4386E+02  0.000E+00  0.000E+00  0.000E+00  1.02465E+03  2.774E+00  4.022E+01  4.098E+00  1.600E-02
   1   13    5     8     2    1.4386E+02 -2.5458E+00   1.4641E+02  0.000E+00  0.000E+00  0.000E+00  1.01841E+03  2.782E+00  4.034E+01  4.111E+00 -2.064E-01
   1   13    4     8     3    1.4641E+02 -4.2134E+00   1.5062E+02  0.000E+00  0.000E+00  0.000E+00  1.01218E+03  2.806E+00  4.069E+01  4.147E+00 -3.387E-01
   1   13    3     8     4    1.5062E+02 -4.5597E+00   1.5518E+02  0.000E+00  0.000E+00  0.000E+00  1.00596E+03  2.837E+00  4.114E+01  4.192E+00 -3.626E-01
   1   13    2     8     5    1.5518E+02 -2.1271E+00   1.5731E+02  0.000E+00  0.000E+00  0.000E+00  9.99735E+02  2.860E+00  4.147E+01  4.226E+00 -1.678E-01
   1   13    1     8     6    1.5731E+02 -6.0086E-01   1.5791E+02  0.000E+00  0.000E+00  0.000E+00  9.94745E+02  2.870E+00  4.161E+01  2.544E+00 -7.873E-02



1
  VOLUMETRIC BUDGET FOR ENTIRE MODEL AT END OF TIME STEP  5 IN STRESS PERIOD   5
  ------------------------------------------------------------------------------

     CUMULATIVE VOLUMES      L**3       RATES FOR THIS TIME STEP      L**3/T
     ------------------                 ------------------------

           IN:                                      IN:
           ---                                      ---
             STORAGE =     8429680.0000               STORAGE =          17.3719
       CONSTANT HEAD =           0.0000         CONSTANT HEAD =           0.0000
               WELLS =           0.0000                 WELLS =           0.0000
     HEAD DEP BOUNDS =     2300652.5000       HEAD DEP BOUNDS =           0.2083
        UZF RECHARGE =   160008576.0000          UZF RECHARGE =          16.8647
               GW ET =           0.0000                 GW ET =           0.0000
     SURFACE LEAKAGE =           0.0000       SURFACE LEAKAGE =           0.0000
      STREAM LEAKAGE =   478448032.0000        STREAM LEAKAGE =          42.0949

            TOTAL IN =   649186944.0000              TOTAL IN =          76.5398

          OUT:                                     OUT:
          ----                                     ----
             STORAGE =   152016768.0000               STORAGE =          13.9810
       CONSTANT HEAD =           0.0000         CONSTANT HEAD =           0.0000
               WELLS =   172829120.0000                 WELLS =          30.0000
     HEAD DEP BOUNDS =     2891310.2500       HEAD DEP BOUNDS =           0.2653
        UZF RECHARGE =           0.0000          UZF RECHARGE =           0.0000
               GW ET =   174674192.0000                 GW ET =          17.2523
     SURFACE LEAKAGE =           0.0000       SURFACE LEAKAGE =           0.0000
      STREAM LEAKAGE =   146635824.0000        STREAM LEAKAGE =          15.0016

           TOTAL OUT =   649047232.0000             TOTAL OUT =          76.5003

            IN - OUT =      139712.0000              IN - OUT =       3.9581E-02

 PERCENT DISCREPANCY =           0.02     PERCENT DISCREPANCY =           0.05






          TIME SUMMARY AT END OF TIME STEP   5 IN STRESS PERIOD    5
                    SECONDS     MINUTES      HOURS       DAYS        YEARS
                    -----------------------------------------------------------
   TIME STEP LENGTH 1.21100E+05  2018.3      33.639      1.4016     3.83743E-03
 STRESS PERIOD TIME 5.04972E+05  8416.2      140.27      5.8446     1.60016E-02
         TOTAL TIME 1.10170E+07 1.83616E+05  3060.3      127.51     0.34911    
1
 
 SOLVING FOR HEAD 
    11 ITERATIONS FOR TIME STEP   6 IN STRESS PERIOD    5

 MAXIMUM HEAD CHANGE FOR EACH ITERATION:

    HEAD CHANGE   HEAD CHANGE   HEAD CHANGE   HEAD CHANGE   HEAD CHANGE
  LAYER,ROW,COL LAYER,ROW,COL LAYER,ROW,COL LAYER,ROW,COL LAYER,ROW,COL
 ----------------------------------------------------------------------
    -0.6363E-01   -0.3408E-01   -0.1821E-01   -0.9803E-02   -0.5311E-02
  (  1,  3,  6) (  1,  3,  6) (  1,  3,  6) (  1,  3,  6) (  1,  3,  6)
    -0.2809E-02   -0.1475E-02   -0.8303E-03   -0.4421E-03   -0.2403E-03
  (  1,  3,  6) (  1,  3,  6) (  1,  3,  6) (  1,  3,  5) (  1,  3,  5)
    -0.1220E-03
  (  1,  3,  5)


 NO OUTPUT CONTROL FOR STRESS PERIOD    5   TIME STEP   6
 
 SOLVING FOR HEAD 
    12 ITERATIONS FOR TIME STEP   7 IN STRESS PERIOD    5

 MAXIMUM HEAD CHANGE FOR EACH ITERATION:

    HEAD CHANGE   HEAD CHANGE   HEAD CHANGE   HEAD CHANGE   HEAD CHANGE
  LAYER,ROW,COL LAYER,ROW,COL LAYER,ROW,COL LAYER,ROW,COL LAYER,ROW,COL
 ----------------------------------------------------------------------
    -0.7980E-01   -0.4080E-01   -0.2092E-01   -0.1073E-01   -0.5548E-02
  (  1,  3,  6) (  1,  3,  6) (  1,  3,  6) (  1,  3,  6) (  1,  3,  6)
    -0.2774E-02   -0.1540E-02   -0.8857E-03   -0.4197E-03   -0.2493E-03
  (  1,  3,  5) (  1,  3,  5) (  1,  3,  5) (  1,  3,  5) (  1,  3,  5)
    -0.2031E-03   -0.1107E-03
  (  1,  3,  6) (  1,  3,  5)


 NO OUTPUT CONTROL FOR STRESS PERIOD    5   TIME STEP   7
 
 SOLVING FOR HEAD 
    11 ITERATIONS FOR TIME STEP   8 IN STRESS PERIOD    5

 MAXIMUM HEAD CHANGE FOR EACH ITERATION:

    HEAD CHANGE   HEAD CHANGE   HEAD CHANGE   HEAD CHANGE   HEAD CHANGE
  LAYER,ROW,COL LAYER,ROW,COL LAYER,ROW,COL LAYER,ROW,COL LAYER,ROW,COL
 ----------------------------------------------------------------------
    -0.9123E-01   -0.4444E-01   -0.2159E-01   -0.1070E-01   -0.5431E-02
  (  1,  3,  6) (  1,  3,  6) (  1,  3,  6) (  1,  3,  5) (  1,  3,  5)
    -0.2863E-02   -0.1457E-02   -0.8264E-03   -0.2441E-03   -0.2331E-03
  (  1,  3,  5) (  1,  3,  5) (  1,  3,  5) (  1,  3,  5) (  1,  3,  5)
    -0.1344E-03
  (  1,  3,  5)


 NO OUTPUT CONTROL FOR STRESS PERIOD    5   TIME STEP   8
 
 SOLVING FOR HEAD 
    10 ITERATIONS FOR TIME STEP   9 IN STRESS PERIOD    5

 MAXIMUM HEAD CHANGE FOR EACH ITERATION:

    HEAD CHANGE   HEAD CHANGE   HEAD CHANGE   HEAD CHANGE   HEAD CHANGE
  LAYER,ROW,COL LAYER,ROW,COL LAYER,ROW,COL LAYER,ROW,COL LAYER,ROW,COL
 ----------------------------------------------------------------------
    -0.1018       -0.4774E-01   -0.2238E-01   -0.1055E-01   -0.5198E-02
  (  1,  3,  6) (  1,  3,  6) (  1,  3,  6) (  1,  3,  5) (  1,  3,  5)
    -0.2562E-02   -0.1299E-02   -0.6017E-03   -0.3165E-03   -0.1614E-03
  (  1,  3,  5) (  1,  3,  5) (  1,  3,  5) (  1,  3,  5) (  1,  3,  5)


 NO OUTPUT CONTROL FOR STRESS PERIOD    5   TIME STEP   9
 
 SOLVING FOR HEAD 
    10 ITERATIONS FOR TIME STEP  10 IN STRESS PERIOD    5

 MAXIMUM HEAD CHANGE FOR EACH ITERATION:

    HEAD CHANGE   HEAD CHANGE   HEAD CHANGE   HEAD CHANGE   HEAD CHANGE
  LAYER,ROW,COL LAYER,ROW,COL LAYER,ROW,COL LAYER,ROW,COL LAYER,ROW,COL
 ----------------------------------------------------------------------
    -0.1112       -0.5159E-01   -0.2131E-01   -0.9907E-02   -0.4642E-02
  (  1,  3,  6) (  1,  3,  6) (  1,  3,  5) (  1,  3,  5) (  1,  3,  5)
    -0.2098E-02   -0.1006E-02   -0.4670E-03   -0.2551E-03   -0.1032E-03
  (  1,  3,  5) (  1,  3,  5) (  1,  3,  5) (  1,  3,  5) (  1,  3,  5)


 OUTPUT CONTROL FOR STRESS PERIOD    5   TIME STEP  10
    PRINT BUDGET
    SAVE BUDGET

            WELLS   PERIOD    5   STEP  10
 WELL      1   LAYER   1   ROW     6   COL     4   RATE    -3.00000    
 WELL      2   LAYER   1   ROW     6   COL     5   RATE    -3.00000    
 WELL      3   LAYER   1   ROW     7   COL     4   RATE    -3.00000    
 WELL      4   LAYER   1   ROW     7   COL     5   RATE    -3.00000    
 WELL      5   LAYER   1   ROW     8   COL     4   RATE    -3.00000    
 WELL      6   LAYER   1   ROW     8   COL     5   RATE    -3.00000    
 WELL      7   LAYER   1   ROW     9   COL     4   RATE    -3.00000    
 WELL      8   LAYER   1   ROW     9   COL     5   RATE    -3.00000    
 WELL      9   LAYER   1   ROW    10   COL     4   RATE    -3.00000    
 WELL     10   LAYER   1   ROW    10   COL     5   RATE    -3.00000    

  HEAD DEP BOUNDS   PERIOD    5   STEP  10
 BOUNDARY      1   LAYER   1   ROW    13   COL     1   RATE   -0.266694    
 BOUNDARY      2   LAYER   1   ROW    14   COL     9   RATE    0.208809    
 UBDSV3 SAVING "           GW ET" ON UNIT  61 AT TIME STEP 10, STRESS PERIOD   5
 UBDSV3 SAVING "    UZF RECHARGE" ON UNIT  61 AT TIME STEP 10, STRESS PERIOD   5
 UBDSV3 SAVING " SURFACE LEAKAGE" ON UNIT  61 AT TIME STEP 10, STRESS PERIOD   5


UNSATURATED ZONE PACKAGE VOLUMETRIC BUDGET FOR  TIME STEP   10 STRESS PERIOD    5
  ------------------------------------------------------------------------------



     CUMULATIVE VOLUMES      L**3       RATES FOR THIS TIME STEP      L**3/T
     ------------------                 ------------------------

           IN:                                      IN:
           ---                                      ---
        INFILTRATION =   924479771.5166          INFILTRATION =          42.3750

          OUT:                                     OUT:
          ----                                     ----
              UZF ET =   997056765.1996                UZF ET =          67.5643
        UZF RECHARGE =   168554060.7849          UZF RECHARGE =           9.4578

            IN - OUT =  -241131054.4679              IN - OUT =         -34.6471

          STORAGE:                                 STORAGE:
          --------                                 --------
      STORAGE CHANGE =  -240926071.7286        STORAGE CHANGE =         -34.6460

 PERCENT DISCREPANCY IS DIFFERENCE BETWEEN IN-OUT MINUS CHANGE IN STORAGE
 DIVIDED BY THE AVERAGE OF IN AND OUT TIMES 100

 PERCENT DISCREPANCY =           0.00     PERCENT DISCREPANCY =           0.00









 STREAM LISTING     PERIOD      5   STEP       10

 LAYER ROW COL. STREAM  RCH.  FLOW INTO     FLOW TO   FLOW OUT OF   OVRLND.     DIRECT     STREAM       STREAM     STREAM     STREAM   STREAMBED  STREAMBED
                SEG.NO.  NO.  STRM. RCH.    AQUIFER    STRM. RCH.    RUNOFF     PRECIP       ET          HEAD       DEPTH      WIDTH   CONDCTNC.   GRADIENT

   1    1    1     1     1    2.5000E+01  9.9795E-01   2.4002E+01  0.000E+00  0.000E+00  0.000E+00  1.09422E+03  1.173E+00  1.296E+01  5.833E-01  5.703E-01
   1    2    2     1     2    2.4002E+01  3.0239E+00   2.0978E+01  0.000E+00  0.000E+00  0.000E+00  1.08920E+03  1.141E+00  1.255E+01  8.783E-01  1.148E+00
   1    3    3     1     3    2.0978E+01  2.9113E+00   1.8067E+01  0.000E+00  0.000E+00  0.000E+00  1.08351E+03  1.092E+00  1.186E+01  7.114E-01  1.364E+00
   1    3    4     1     4    1.8067E+01  2.4732E+00   1.5594E+01  0.000E+00  0.000E+00  0.000E+00  1.07845E+03  1.046E+00  1.101E+01  6.112E-01  1.349E+00
   1    4    5     2     1    5.5936E+00  2.6658E+00   2.9279E+00  0.000E+00  0.000E+00  0.000E+00  1.07235E+03  4.177E-01  1.200E+01  7.800E-01  1.139E+00
   1    5    6     2     2    2.9279E+00  1.9568E+00   9.7109E-01  0.000E+00  0.000E+00  0.000E+00  1.06677E+03  2.613E-01  1.200E+01  6.000E-01  1.087E+00
   1    6    6     2     3    9.7109E-01  9.7109E-01   0.0000E+00  0.000E+00  0.000E+00  0.000E+00  1.06181E+03  1.935E-02  1.200E+01  6.000E-01  1.006E+00
   1    7    6     2     4    0.0000E+00  0.0000E+00   0.0000E+00  0.000E+00  0.000E+00  0.000E+00  1.05708E+03  0.000E+00  1.200E+01  6.000E-01  1.000E+00
   1    8    6     2     5    0.0000E+00  0.0000E+00   0.0000E+00  0.000E+00  0.000E+00  0.000E+00  1.05236E+03  0.000E+00  1.200E+01  6.000E-01  1.000E+00
   1    3    5     3     1    1.0000E+01  1.9493E+00   8.0507E+00  0.000E+00  0.000E+00  0.000E+00  1.07555E+03  1.909E+00  9.636E+00  7.227E-01  1.349E+00
   1    3    6     3     2    8.0507E+00  6.8164E-01   7.3691E+00  0.000E+00  0.000E+00  0.000E+00  1.07264E+03  1.727E+00  8.909E+00  6.682E-01  5.101E-01
   1    3    7     3     3    7.3691E+00  1.3061E-01   7.2385E+00  0.000E+00  0.000E+00  0.000E+00  1.06987E+03  1.555E+00  8.218E+00  5.547E-01  1.177E-01
   1    4    8     3     4    7.2385E+00  1.5665E+00   5.6720E+00  0.000E+00  0.000E+00  0.000E+00  1.06682E+03  1.364E+00  7.455E+00  6.709E-01  1.167E+00
   1    5    8     3     5    5.6720E+00  1.5790E+00   4.0930E+00  0.000E+00  0.000E+00  0.000E+00  1.06362E+03  1.164E+00  6.655E+00  4.991E-01  1.582E+00
   1    6    8     3     6    4.0930E+00  5.5980E-01   3.5332E+00  0.000E+00  0.000E+00  0.000E+00  1.06158E+03  1.036E+00  6.145E+00  1.844E-01  1.518E+00
   1    5   10     4     1    1.0000E+01  9.0525E-01   9.0947E+00  0.000E+00  0.000E+00  0.000E+00  1.07835E+03  6.210E-01  1.000E+01  2.500E-01  1.207E+00
   1    5    9     4     2    9.0947E+00  1.7835E+00   7.3113E+00  0.000E+00  0.000E+00  0.000E+00  1.07148E+03  5.670E-01  1.000E+01  5.000E-01  1.189E+00
   1    6    8     4     3    7.3113E+00  1.2257E+00   6.0855E+00  0.000E+00  0.000E+00  0.000E+00  1.06368E+03  5.021E-01  1.000E+01  3.500E-01  1.167E+00
   1    6    8     5     1    9.6187E+00  1.2048E+00   8.4139E+00  0.000E+00  0.000E+00  0.000E+00  1.05865E+03  6.477E-01  1.422E+01  5.687E-01  7.062E-01
   1    7    7     5     2    8.4139E+00  2.2530E+00   6.1610E+00  0.000E+00  0.000E+00  0.000E+00  1.05410E+03  6.012E-01  1.251E+01  6.256E-01  1.200E+00
   1    8    7     5     3    6.1610E+00  1.3120E+00   4.8490E+00  0.000E+00  0.000E+00  0.000E+00  1.04980E+03  5.450E-01  1.057E+01  3.701E-01  1.182E+00
   1    8    6     5     4    4.8490E+00  8.1472E-01   4.0342E+00  0.000E+00  0.000E+00  0.000E+00  1.04676E+03  5.056E-01  9.296E+00  2.324E-01  1.169E+00
   1    9    6     6     1    4.0342E+00  2.0066E+00   2.0277E+00  0.000E+00  0.000E+00  0.000E+00  1.04307E+03  3.443E-01  1.200E+01  6.000E-01  1.115E+00
   1   10    7     6     2    2.0277E+00  1.9107E+00   1.1692E-01  0.000E+00  0.000E+00  0.000E+00  1.03837E+03  1.846E-01  1.200E+01  6.000E-01  1.062E+00
   1   11    7     6     3    1.1692E-01  1.1692E-01   0.0000E+00  0.000E+00  0.000E+00  0.000E+00  1.03365E+03  1.099E-02  1.200E+01  6.000E-01  1.004E+00
   1   12    7     6     4    0.0000E+00  0.0000E+00   0.0000E+00  0.000E+00  0.000E+00  0.000E+00  1.02909E+03  0.000E+00  1.200E+01  6.000E-01  3.042E-01
   1   13    7     6     5    0.0000E+00 -8.2583E-01   8.2583E-01  0.000E+00  0.000E+00  0.000E+00  1.02591E+03  0.000E+00  1.200E+01  2.400E-01 -1.147E+00
   1   14    9     7     1    1.5000E+02  2.0219E+00   1.4798E+02  0.000E+00  0.000E+00  0.000E+00  1.03987E+03  2.286E+00  5.529E+01  5.592E+00  1.205E-01
   1   13    8     7     2    1.4798E+02  2.9693E+00   1.4501E+02  0.000E+00  0.000E+00  0.000E+00  1.03477E+03  2.273E+00  5.523E+01  6.144E+00  1.611E-01
   1   13    7     7     3    1.4501E+02  1.8355E+00   1.4317E+02  0.000E+00  0.000E+00  0.000E+00  1.02968E+03  2.260E+00  5.517E+01  5.579E+00  1.097E-01
   1   13    6     8     1    1.4400E+02  1.9085E-01   1.4381E+02  0.000E+00  0.000E+00  0.000E+00  1.02465E+03  2.773E+00  4.021E+01  4.098E+00  1.552E-02
   1   13    5     8     2    1.4381E+02 -2.2697E+00   1.4608E+02  0.000E+00  0.000E+00  0.000E+00  1.01841E+03  2.781E+00  4.032E+01  4.109E+00 -1.841E-01
   1   13    4     8     3    1.4608E+02 -3.9614E+00   1.5004E+02  0.000E+00  0.000E+00  0.000E+00  1.01218E+03  2.803E+00  4.065E+01  4.142E+00 -3.188E-01
   1   13    3     8     4    1.5004E+02 -4.2639E+00   1.5430E+02  0.000E+00  0.000E+00  0.000E+00  1.00596E+03  2.832E+00  4.106E+01  4.185E+00 -3.396E-01
   1   13    2     8     5    1.5430E+02 -2.1035E+00   1.5641E+02  0.000E+00  0.000E+00  0.000E+00  9.99729E+02  2.854E+00  4.138E+01  4.217E+00 -1.663E-01
   1   13    1     8     6    1.5641E+02 -7.0952E-01   1.5712E+02  0.000E+00  0.000E+00  0.000E+00  9.94739E+02  2.864E+00  4.153E+01  2.539E+00 -9.315E-02



1
  VOLUMETRIC BUDGET FOR ENTIRE MODEL AT END OF TIME STEP 10 IN STRESS PERIOD   5
  ------------------------------------------------------------------------------

     CUMULATIVE VOLUMES      L**3       RATES FOR THIS TIME STEP      L**3/T
     ------------------                 ------------------------

           IN:                                      IN:
           ---                                      ---
             STORAGE =    25043416.0000               STORAGE =          19.1304
       CONSTANT HEAD =           0.0000         CONSTANT HEAD =           0.0000
               WELLS =           0.0000                 WELLS =           0.0000
     HEAD DEP BOUNDS =     2470346.5000       HEAD DEP BOUNDS =           0.2088
        UZF RECHARGE =   168554096.0000          UZF RECHARGE =           9.4578
               GW ET =           0.0000                 GW ET =           0.0000
     SURFACE LEAKAGE =           0.0000       SURFACE LEAKAGE =           0.0000
      STREAM LEAKAGE =   512616896.0000        STREAM LEAKAGE =          42.0176

            TOTAL IN =   708684736.0000              TOTAL IN =          70.8146

          OUT:                                     OUT:
          ----                                     ----
             STORAGE =   159613408.0000               STORAGE =           7.4121
       CONSTANT HEAD =           0.0000         CONSTANT HEAD =           0.0000
               WELLS =   197226976.0000                 WELLS =          30.0000
     HEAD DEP BOUNDS =     3107809.5000       HEAD DEP BOUNDS =           0.2667
        UZF RECHARGE =           0.0000          UZF RECHARGE =           0.0000
               GW ET =   190242816.0000                 GW ET =          18.9832
     SURFACE LEAKAGE =           0.0000       SURFACE LEAKAGE =           0.0000
      STREAM LEAKAGE =   158349952.0000        STREAM LEAKAGE =          14.1338

           TOTAL OUT =   708540928.0000             TOTAL OUT =          70.7959

            IN - OUT =      143808.0000              IN - OUT =       1.8707E-02

 PERCENT DISCREPANCY =           0.02     PERCENT DISCREPANCY =           0.03






          TIME SUMMARY AT END OF TIME STEP  10 IN STRESS PERIOD    5
                    SECONDS     MINUTES      HOURS       DAYS        YEARS
                    -----------------------------------------------------------
   TIME STEP LENGTH 1.95033E+05  3250.6      54.176      2.2573     6.18023E-03
 STRESS PERIOD TIME 1.31823E+06  21971.      366.18      15.257     4.17723E-02
         TOTAL TIME 1.18302E+07 1.97171E+05  3286.2      136.92     0.37488    
1
 
 SOLVING FOR HEAD 
     7 ITERATIONS FOR TIME STEP  11 IN STRESS PERIOD    5

 MAXIMUM HEAD CHANGE FOR EACH ITERATION:

    HEAD CHANGE   HEAD CHANGE   HEAD CHANGE   HEAD CHANGE   HEAD CHANGE
  LAYER,ROW,COL LAYER,ROW,COL LAYER,ROW,COL LAYER,ROW,COL LAYER,ROW,COL
 ----------------------------------------------------------------------
    -0.1166       -0.5113E-01   -0.2028E-01   -0.9081E-02   -0.3892E-02
  (  1,  3,  6) (  1,  3,  6) (  1,  3,  5) (  1,  3,  5) (  1,  3,  5)
    -0.7790E-03   -0.1554E-03
  (  1,  3,  5) (  1,  3,  5)


 NO OUTPUT CONTROL FOR STRESS PERIOD    5   TIME STEP  11
 
 SOLVING FOR HEAD 
     7 ITERATIONS FOR TIME STEP  12 IN STRESS PERIOD    5

 MAXIMUM HEAD CHANGE FOR EACH ITERATION:

    HEAD CHANGE   HEAD CHANGE   HEAD CHANGE   HEAD CHANGE   HEAD CHANGE
  LAYER,ROW,COL LAYER,ROW,COL LAYER,ROW,COL LAYER,ROW,COL LAYER,ROW,COL
 ----------------------------------------------------------------------
    -0.1171       -0.4978E-01   -0.1985E-01   -0.7416E-02   -0.1482E-02
  (  1,  3,  6) (  1,  3,  6) (  1,  3,  5) (  1,  3,  5) (  1,  3,  5)
    -0.2968E-03   -0.7813E-04
  (  1,  3,  5) (  1, 10,  7)


 NO OUTPUT CONTROL FOR STRESS PERIOD    5   TIME STEP  12
 
 SOLVING FOR HEAD 
     7 ITERATIONS FOR TIME STEP  13 IN STRESS PERIOD    5

 MAXIMUM HEAD CHANGE FOR EACH ITERATION:

    HEAD CHANGE   HEAD CHANGE   HEAD CHANGE   HEAD CHANGE   HEAD CHANGE
  LAYER,ROW,COL LAYER,ROW,COL LAYER,ROW,COL LAYER,ROW,COL LAYER,ROW,COL
 ----------------------------------------------------------------------
    -0.1131       -0.5095E-01   -0.1851E-01   -0.8033E-02   -0.2496E-02
  (  1,  3,  6) (  1,  3,  6) (  1,  3,  5) (  1,  3,  5) (  1,  3,  5)
    -0.5002E-03   -0.9972E-04
  (  1,  3,  5) (  1,  3,  5)


 NO OUTPUT CONTROL FOR STRESS PERIOD    5   TIME STEP  13
 
 SOLVING FOR HEAD 
     8 ITERATIONS FOR TIME STEP  14 IN STRESS PERIOD    5

 MAXIMUM HEAD CHANGE FOR EACH ITERATION:

    HEAD CHANGE   HEAD CHANGE   HEAD CHANGE   HEAD CHANGE   HEAD CHANGE
  LAYER,ROW,COL LAYER,ROW,COL LAYER,ROW,COL LAYER,ROW,COL LAYER,ROW,COL
 ----------------------------------------------------------------------
    -0.1030       -0.4610E-01   -0.1834E-01   -0.6978E-02   -0.3105E-02
  (  1,  3,  6) (  1,  3,  6) (  1,  3,  6) (  1,  3,  5) (  1,  3,  5)
    -0.1292E-02   -0.5568E-03   -0.1808E-03
  (  1,  3,  5) (  1,  3,  5) (  1,  3,  5)


 NO OUTPUT CONTROL FOR STRESS PERIOD    5   TIME STEP  14
 
 SOLVING FOR HEAD 
     9 ITERATIONS FOR TIME STEP  15 IN STRESS PERIOD    5

 MAXIMUM HEAD CHANGE FOR EACH ITERATION:

    HEAD CHANGE   HEAD CHANGE   HEAD CHANGE   HEAD CHANGE   HEAD CHANGE
  LAYER,ROW,COL LAYER,ROW,COL LAYER,ROW,COL LAYER,ROW,COL LAYER,ROW,COL
 ----------------------------------------------------------------------
    -0.8638E-01   -0.3849E-01   -0.1710E-01   -0.7598E-02   -0.3357E-02
  (  1,  3,  6) (  1,  3,  6) (  1,  3,  6) (  1,  3,  6) (  1,  3,  6)
    -0.1420E-02   -0.7028E-03   -0.2407E-03   -0.1300E-03
  (  1,  3,  6) (  1,  3,  6) (  1,  3,  5) (  1,  3,  6)


 OUTPUT CONTROL FOR STRESS PERIOD    5   TIME STEP  15
    PRINT BUDGET
    SAVE BUDGET

            WELLS   PERIOD    5   STEP  15
 WELL      1   LAYER   1   ROW     6   COL     4   RATE    -3.00000    
 WELL      2   LAYER   1   ROW     6   COL     5   RATE    -3.00000    
 WELL      3   LAYER   1   ROW     7   COL     4   RATE    -3.00000    
 WELL      4   LAYER   1   ROW     7   COL     5   RATE    -3.00000    
 WELL      5   LAYER   1   ROW     8   COL     4   RATE    -3.00000    
 WELL      6   LAYER   1   ROW     8   COL     5   RATE    -3.00000    
 WELL      7   LAYER   1   ROW     9   COL     4   RATE    -3.00000    
 WELL      8   LAYER   1   ROW     9   COL     5   RATE    -3.00000    
 WELL      9   LAYER   1   ROW    10   COL     4   RATE    -3.00000    
 WELL     10   LAYER   1   ROW    10   COL     5   RATE    -3.00000    

  HEAD DEP BOUNDS   PERIOD    5   STEP  15
 BOUNDARY      1   LAYER   1   ROW    13   COL     1   RATE   -0.266445    
 BOUNDARY      2   LAYER   1   ROW    14   COL     9   RATE    0.209008    
 UBDSV3 SAVING "           GW ET" ON UNIT  61 AT TIME STEP 15, STRESS PERIOD   5
 UBDSV3 SAVING "    UZF RECHARGE" ON UNIT  61 AT TIME STEP 15, STRESS PERIOD   5
 UBDSV3 SAVING " SURFACE LEAKAGE" ON UNIT  61 AT TIME STEP 15, STRESS PERIOD   5


UNSATURATED ZONE PACKAGE VOLUMETRIC BUDGET FOR  TIME STEP   15 STRESS PERIOD    5
  ------------------------------------------------------------------------------



     CUMULATIVE VOLUMES      L**3       RATES FOR THIS TIME STEP      L**3/T
     ------------------                 ------------------------

           IN:                                      IN:
           ---                                      ---
        INFILTRATION =   979981122.0635          INFILTRATION =          42.3750

          OUT:                                     OUT:
          ----                                     ----
              UZF ET =  1085786989.0878                UZF ET =          61.0509
        UZF RECHARGE =   179408744.2419          UZF RECHARGE =           7.9795

            IN - OUT =  -285214611.2662              IN - OUT =         -26.6554

          STORAGE:                                 STORAGE:
          --------                                 --------
      STORAGE CHANGE =  -285008418.1580        STORAGE CHANGE =         -26.6551

 PERCENT DISCREPANCY IS DIFFERENCE BETWEEN IN-OUT MINUS CHANGE IN STORAGE
 DIVIDED BY THE AVERAGE OF IN AND OUT TIMES 100

 PERCENT DISCREPANCY =           0.00     PERCENT DISCREPANCY =           0.00









 STREAM LISTING     PERIOD      5   STEP       15

 LAYER ROW COL. STREAM  RCH.  FLOW INTO     FLOW TO   FLOW OUT OF   OVRLND.     DIRECT     STREAM       STREAM     STREAM     STREAM   STREAMBED  STREAMBED
                SEG.NO.  NO.  STRM. RCH.    AQUIFER    STRM. RCH.    RUNOFF     PRECIP       ET          HEAD       DEPTH      WIDTH   CONDCTNC.   GRADIENT

   1    1    1     1     1    2.5000E+01  1.0123E+00   2.3988E+01  0.000E+00  0.000E+00  0.000E+00  1.09422E+03  1.173E+00  1.296E+01  5.833E-01  5.785E-01
   1    2    2     1     2    2.3988E+01  3.0447E+00   2.0943E+01  0.000E+00  0.000E+00  0.000E+00  1.08920E+03  1.141E+00  1.254E+01  8.780E-01  1.156E+00
   1    3    3     1     3    2.0943E+01  2.9084E+00   1.8035E+01  0.000E+00  0.000E+00  0.000E+00  1.08351E+03  1.092E+00  1.185E+01  7.108E-01  1.364E+00
   1    3    4     1     4    1.8035E+01  2.4706E+00   1.5564E+01  0.000E+00  0.000E+00  0.000E+00  1.07845E+03  1.046E+00  1.100E+01  6.107E-01  1.349E+00
   1    4    5     2     1    5.5640E+00  2.6645E+00   2.8996E+00  0.000E+00  0.000E+00  0.000E+00  1.07235E+03  4.160E-01  1.200E+01  7.800E-01  1.139E+00
   1    5    6     2     2    2.8996E+00  1.9554E+00   9.4412E-01  0.000E+00  0.000E+00  0.000E+00  1.06677E+03  2.590E-01  1.200E+01  6.000E-01  1.086E+00
   1    6    6     2     3    9.4412E-01  9.4412E-01   0.0000E+00  0.000E+00  0.000E+00  0.000E+00  1.06181E+03  1.902E-02  1.200E+01  6.000E-01  1.006E+00
   1    7    6     2     4    0.0000E+00  0.0000E+00   0.0000E+00  0.000E+00  0.000E+00  0.000E+00  1.05708E+03  0.000E+00  1.200E+01  6.000E-01  1.000E+00
   1    8    6     2     5    0.0000E+00  0.0000E+00   0.0000E+00  0.000E+00  0.000E+00  0.000E+00  1.05236E+03  0.000E+00  1.200E+01  6.000E-01  1.000E+00
   1    3    5     3     1    1.0000E+01  2.5316E+00   7.4684E+00  0.000E+00  0.000E+00  0.000E+00  1.07555E+03  1.909E+00  9.636E+00  7.227E-01  1.751E+00
   1    3    6     3     2    7.4684E+00  1.2596E+00   6.2088E+00  0.000E+00  0.000E+00  0.000E+00  1.07264E+03  1.727E+00  8.909E+00  6.682E-01  9.426E-01
   1    3    7     3     3    6.2088E+00  4.5363E-01   5.7551E+00  0.000E+00  0.000E+00  0.000E+00  1.06987E+03  1.555E+00  8.218E+00  5.547E-01  4.089E-01
   1    4    8     3     4    5.7551E+00  1.5469E+00   4.2082E+00  0.000E+00  0.000E+00  0.000E+00  1.06682E+03  1.364E+00  7.455E+00  6.709E-01  1.153E+00
   1    5    8     3     5    4.2082E+00  1.5790E+00   2.6292E+00  0.000E+00  0.000E+00  0.000E+00  1.06362E+03  1.164E+00  6.655E+00  4.991E-01  1.582E+00
   1    6    8     3     6    2.6292E+00  5.5980E-01   2.0694E+00  0.000E+00  0.000E+00  0.000E+00  1.06158E+03  1.036E+00  6.145E+00  1.844E-01  1.518E+00
   1    5   10     4     1    1.0000E+01  9.0525E-01   9.0947E+00  0.000E+00  0.000E+00  0.000E+00  1.07835E+03  6.210E-01  1.000E+01  2.500E-01  1.207E+00
   1    5    9     4     2    9.0947E+00  1.7835E+00   7.3113E+00  0.000E+00  0.000E+00  0.000E+00  1.07148E+03  5.670E-01  1.000E+01  5.000E-01  1.189E+00
   1    6    8     4     3    7.3113E+00  1.2257E+00   6.0855E+00  0.000E+00  0.000E+00  0.000E+00  1.06368E+03  5.021E-01  1.000E+01  3.500E-01  1.167E+00
   1    6    8     5     1    8.1550E+00  1.0709E+00   7.0841E+00  0.000E+00  0.000E+00  0.000E+00  1.05861E+03  6.107E-01  1.285E+01  5.141E-01  6.944E-01
   1    7    7     5     2    7.0841E+00  2.0010E+00   5.0831E+00  0.000E+00  0.000E+00  0.000E+00  1.05406E+03  5.644E-01  1.123E+01  5.614E-01  1.188E+00
   1    8    7     5     3    5.0831E+00  1.1516E+00   3.9315E+00  0.000E+00  0.000E+00  0.000E+00  1.04976E+03  5.082E-01  9.379E+00  3.283E-01  1.169E+00
   1    8    6     5     4    3.9315E+00  7.0803E-01   3.2235E+00  0.000E+00  0.000E+00  0.000E+00  1.04672E+03  4.687E-01  8.165E+00  2.041E-01  1.156E+00
   1    9    6     6     1    3.2235E+00  1.9722E+00   1.2513E+00  0.000E+00  0.000E+00  0.000E+00  1.04301E+03  2.870E-01  1.200E+01  6.000E-01  1.096E+00
   1   10    7     6     2    1.2513E+00  1.2513E+00   0.0000E+00  0.000E+00  0.000E+00  0.000E+00  1.03823E+03  4.556E-02  1.200E+01  6.000E-01  1.015E+00
   1   11    7     6     3    0.0000E+00  0.0000E+00   0.0000E+00  0.000E+00  0.000E+00  0.000E+00  1.03364E+03  0.000E+00  1.200E+01  6.000E-01  1.000E+00
   1   12    7     6     4    0.0000E+00  0.0000E+00   0.0000E+00  0.000E+00  0.000E+00  0.000E+00  1.02909E+03  0.000E+00  1.200E+01  6.000E-01  2.965E-01
   1   13    7     6     5    0.0000E+00 -8.1344E-01   8.1344E-01  0.000E+00  0.000E+00  0.000E+00  1.02591E+03  0.000E+00  1.200E+01  2.400E-01 -1.130E+00
   1   14    9     7     1    1.5000E+02  2.0507E+00   1.4795E+02  0.000E+00  0.000E+00  0.000E+00  1.03987E+03  2.286E+00  5.529E+01  5.592E+00  1.222E-01
   1   13    8     7     2    1.4795E+02  2.9900E+00   1.4496E+02  0.000E+00  0.000E+00  0.000E+00  1.03477E+03  2.272E+00  5.523E+01  6.144E+00  1.622E-01
   1   13    7     7     3    1.4496E+02  2.1178E+00   1.4284E+02  0.000E+00  0.000E+00  0.000E+00  1.02968E+03  2.259E+00  5.516E+01  5.579E+00  1.265E-01
   1   13    6     8     1    1.4365E+02  4.7221E-01   1.4318E+02  0.000E+00  0.000E+00  0.000E+00  1.02464E+03  2.770E+00  4.016E+01  4.093E+00  3.846E-02
   1   13    5     8     2    1.4318E+02 -2.1302E+00   1.4531E+02  0.000E+00  0.000E+00  0.000E+00  1.01840E+03  2.776E+00  4.025E+01  4.102E+00 -1.731E-01
   1   13    4     8     3    1.4531E+02 -3.8412E+00   1.4915E+02  0.000E+00  0.000E+00  0.000E+00  1.01217E+03  2.797E+00  4.056E+01  4.133E+00 -3.098E-01
   1   13    3     8     4    1.4915E+02 -4.1287E+00   1.5328E+02  0.000E+00  0.000E+00  0.000E+00  1.00595E+03  2.825E+00  4.097E+01  4.175E+00 -3.296E-01
   1   13    2     8     5    1.5328E+02 -2.0871E+00   1.5537E+02  0.000E+00  0.000E+00  0.000E+00  9.99722E+02  2.847E+00  4.128E+01  4.207E+00 -1.654E-01
   1   13    1     8     6    1.5537E+02 -7.0919E-01   1.5608E+02  0.000E+00  0.000E+00  0.000E+00  9.94732E+02  2.857E+00  4.142E+01  2.533E+00 -9.334E-02



1
  VOLUMETRIC BUDGET FOR ENTIRE MODEL AT END OF TIME STEP 15 IN STRESS PERIOD   5
  ------------------------------------------------------------------------------

     CUMULATIVE VOLUMES      L**3       RATES FOR THIS TIME STEP      L**3/T
     ------------------                 ------------------------

           IN:                                      IN:
           ---                                      ---
             STORAGE =    46452436.0000               STORAGE =          14.8107
       CONSTANT HEAD =           0.0000         CONSTANT HEAD =           0.0000
               WELLS =           0.0000                 WELLS =           0.0000
     HEAD DEP BOUNDS =     2744028.2500       HEAD DEP BOUNDS =           0.2090
        UZF RECHARGE =   179408800.0000          UZF RECHARGE =           7.9795
               GW ET =           0.0000                 GW ET =           0.0000
     SURFACE LEAKAGE =           0.0000       SURFACE LEAKAGE =           0.0000
      STREAM LEAKAGE =   568127552.0000        STREAM LEAKAGE =          42.6308

            TOTAL IN =   796732800.0000              TOTAL IN =          65.6300

          OUT:                                     OUT:
          ----                                     ----
             STORAGE =   165477008.0000               STORAGE =           3.2592
       CONSTANT HEAD =           0.0000         CONSTANT HEAD =           0.0000
               WELLS =   236519984.0000                 WELLS =          30.0000
     HEAD DEP BOUNDS =     3457235.5000       HEAD DEP BOUNDS =           0.2664
        UZF RECHARGE =           0.0000          UZF RECHARGE =           0.0000
               GW ET =   214657216.0000                 GW ET =          18.4345
     SURFACE LEAKAGE =           0.0000       SURFACE LEAKAGE =           0.0000
      STREAM LEAKAGE =   176493888.0000        STREAM LEAKAGE =          13.7099

           TOTAL OUT =   796605376.0000             TOTAL OUT =          65.6700

            IN - OUT =      127424.0000              IN - OUT =      -3.9932E-02

 PERCENT DISCREPANCY =           0.02     PERCENT DISCREPANCY =          -0.06






          TIME SUMMARY AT END OF TIME STEP  15 IN STRESS PERIOD    5
                    SECONDS     MINUTES      HOURS       DAYS        YEARS
                    -----------------------------------------------------------
   TIME STEP LENGTH 3.14103E+05  5235.0      87.251      3.6354     9.95332E-03
 STRESS PERIOD TIME 2.62800E+06  43800.      730.00      30.417     8.32763E-02
         TOTAL TIME 1.31400E+07 2.19000E+05  3650.0      152.08     0.41638    
1
1
                            STRESS PERIOD NO.    6, LENGTH =   2628000.    
                            -----------------------------------------------

                              NUMBER OF TIME STEPS =    15

                               MULTIPLIER FOR DELT =     1.100

                            INITIAL TIME STEP SIZE =   82713.07    

      0 WELLS

 REUSING NON-PARAMETER GHB CELLS FROM LAST STRESS PERIOD

      2 GHB CELLS

 REUSING STREAM SEGMENT DATA FROM LAST STRESS PERIOD



            AREAL INFILTRATION RATE
 READING ON UNIT   19 WITH FORMAT: (10F4.0)            

            1           2           3           4           5           6           7           8           9          10
 ........................................................................................................................
   1   1.0000E-08  2.0000E-08   0.000       0.000       0.000       0.000       0.000       0.000       0.000       0.000    
   2   2.0000E-08  1.0000E-08  2.0000E-08   0.000       0.000      8.0000E-08  8.0000E-08  5.0000E-08   0.000       0.000    
   3    0.000      5.0000E-08  1.0000E-08  1.0000E-08  8.0000E-08  8.0000E-08  5.0000E-08  5.0000E-08   0.000       0.000    
   4   8.0000E-08  5.0000E-08  1.0000E-08  1.0000E-08  1.0000E-08  1.0000E-08  1.0000E-08  1.0000E-08  2.0000E-08   0.000    
   5   8.0000E-08  5.0000E-08  1.0000E-08  1.0000E-08  1.0000E-08  1.0000E-08  1.0000E-08  1.0000E-08  1.0000E-08  1.0000E-08
   6   8.0000E-08  5.0000E-08  5.0000E-08  2.0000E-08  2.0000E-08  1.0000E-08  1.0000E-08  1.0000E-08  1.0000E-08  5.0000E-08
   7   8.0000E-08  5.0000E-08  5.0000E-08  2.0000E-08  2.0000E-08  1.0000E-08  1.0000E-08  2.0000E-08  2.0000E-08   0.000    
   8    0.000      5.0000E-08  5.0000E-08  2.0000E-08  2.0000E-08  1.0000E-08  1.0000E-08  2.0000E-08  5.0000E-08   0.000    
   9    0.000      5.0000E-08  5.0000E-08  2.0000E-08  2.0000E-08  1.0000E-08  1.0000E-08  2.0000E-08  5.0000E-08   0.000    
  10    0.000      5.0000E-08  5.0000E-08  2.0000E-08  2.0000E-08  1.0000E-08  1.0000E-08  2.0000E-08  5.0000E-08  8.0000E-08
  11    0.000      1.0000E-08  1.0000E-08  1.0000E-08  1.0000E-08  1.0000E-08  1.0000E-08  2.0000E-08  5.0000E-08   0.000    
  12   1.0000E-08  1.0000E-08  1.0000E-08  1.0000E-08  1.0000E-08  1.0000E-08  1.0000E-08  1.0000E-08  2.0000E-08   0.000    
  13   1.0000E-08  1.0000E-08  2.0000E-08  2.0000E-08  2.0000E-08  2.0000E-08  2.0000E-08  1.0000E-08  1.0000E-08   0.000    
  14    0.000      2.0000E-08  5.0000E-08  5.0000E-08  5.0000E-08  5.0000E-08  5.0000E-08  2.0000E-08  1.0000E-08   0.000    
  15    0.000       0.000      8.0000E-08  8.0000E-08  8.0000E-08  8.0000E-08   0.000       0.000       0.000       0.000    

USING ET RATE FROM PREVIOUS STRESS PERIOD. CURRENT PERIOD IS:       6

 USING ET EXTINCTION DEPTH FROM PREVIOUS STRESS PERIOD. CURRENT PERIOD IS:       6

 USING EXTINCTION WATER CONTENT FROM PREVIOUS STRESS PERIOD. CURRENT PERIOD IS:       6
 
 SOLVING FOR HEAD 

     8 ITERATIONS FOR TIME STEP   1 IN STRESS PERIOD    6

 MAXIMUM HEAD CHANGE FOR EACH ITERATION:

    HEAD CHANGE   HEAD CHANGE   HEAD CHANGE   HEAD CHANGE   HEAD CHANGE
  LAYER,ROW,COL LAYER,ROW,COL LAYER,ROW,COL LAYER,ROW,COL LAYER,ROW,COL
 ----------------------------------------------------------------------
     0.2998E-01   -0.8551E-02   -0.4000E-02   -0.1823E-02   -0.8503E-03
  (  1,  6,  5) (  1,  3,  6) (  1,  3,  6) (  1,  3,  6) (  1,  3,  6)
    -0.3644E-03   -0.2203E-03   -0.9139E-04
  (  1,  3,  6) (  1,  3,  6) (  1,  3,  6)


 NO OUTPUT CONTROL FOR STRESS PERIOD    6   TIME STEP   1
 
 SOLVING FOR HEAD 
     7 ITERATIONS FOR TIME STEP   2 IN STRESS PERIOD    6

 MAXIMUM HEAD CHANGE FOR EACH ITERATION:

    HEAD CHANGE   HEAD CHANGE   HEAD CHANGE   HEAD CHANGE   HEAD CHANGE
  LAYER,ROW,COL LAYER,ROW,COL LAYER,ROW,COL LAYER,ROW,COL LAYER,ROW,COL
 ----------------------------------------------------------------------
     0.3180E-01   -0.8886E-02   -0.4120E-02   -0.1888E-02   -0.9117E-03
  (  1,  6,  5) (  1,  3,  6) (  1,  3,  6) (  1,  3,  6) (  1,  3,  6)
    -0.4481E-03   -0.1968E-03
  (  1,  3,  6) (  1,  3,  6)


 NO OUTPUT CONTROL FOR STRESS PERIOD    6   TIME STEP   2
 
 SOLVING FOR HEAD 
     7 ITERATIONS FOR TIME STEP   3 IN STRESS PERIOD    6

 MAXIMUM HEAD CHANGE FOR EACH ITERATION:

    HEAD CHANGE   HEAD CHANGE   HEAD CHANGE   HEAD CHANGE   HEAD CHANGE
  LAYER,ROW,COL LAYER,ROW,COL LAYER,ROW,COL LAYER,ROW,COL LAYER,ROW,COL
 ----------------------------------------------------------------------
     0.3362E-01   -0.9216E-02   -0.4287E-02   -0.2023E-02   -0.9280E-03
  (  1,  6,  5) (  1,  3,  6) (  1,  3,  6) (  1,  3,  6) (  1,  3,  6)
    -0.3574E-03   -0.1887E-03
  (  1,  3,  6) (  1,  3,  6)


 NO OUTPUT CONTROL FOR STRESS PERIOD    6   TIME STEP   3
 
 SOLVING FOR HEAD 
     7 ITERATIONS FOR TIME STEP   4 IN STRESS PERIOD    6

 MAXIMUM HEAD CHANGE FOR EACH ITERATION:

    HEAD CHANGE   HEAD CHANGE   HEAD CHANGE   HEAD CHANGE   HEAD CHANGE
  LAYER,ROW,COL LAYER,ROW,COL LAYER,ROW,COL LAYER,ROW,COL LAYER,ROW,COL
 ----------------------------------------------------------------------
     0.3558E-01   -0.9501E-02   -0.4378E-02   -0.2086E-02   -0.9248E-03
  (  1,  6,  5) (  1,  3,  6) (  1,  3,  6) (  1,  3,  6) (  1,  3,  6)
    -0.4380E-03   -0.1828E-03
  (  1,  3,  6) (  1,  3,  5)


 NO OUTPUT CONTROL FOR STRESS PERIOD    6   TIME STEP   4
 
 SOLVING FOR HEAD 
     7 ITERATIONS FOR TIME STEP   5 IN STRESS PERIOD    6

 MAXIMUM HEAD CHANGE FOR EACH ITERATION:

    HEAD CHANGE   HEAD CHANGE   HEAD CHANGE   HEAD CHANGE   HEAD CHANGE
  LAYER,ROW,COL LAYER,ROW,COL LAYER,ROW,COL LAYER,ROW,COL LAYER,ROW,COL
 ----------------------------------------------------------------------
     0.3749E-01   -0.9698E-02   -0.4437E-02   -0.2139E-02   -0.9081E-03
  (  1,  6,  5) (  1,  3,  6) (  1,  3,  6) (  1,  3,  6) (  1,  3,  6)
    -0.4620E-03   -0.1970E-03
  (  1,  3,  6) (  1,  3,  5)


 OUTPUT CONTROL FOR STRESS PERIOD    6   TIME STEP   5
    PRINT BUDGET
    SAVE BUDGET

  HEAD DEP BOUNDS   PERIOD    6   STEP   5
 BOUNDARY      1   LAYER   1   ROW    13   COL     1   RATE   -0.265914    
 BOUNDARY      2   LAYER   1   ROW    14   COL     9   RATE    0.209016    
 UBDSV3 SAVING "           GW ET" ON UNIT  61 AT TIME STEP  5, STRESS PERIOD   6
 UBDSV3 SAVING "    UZF RECHARGE" ON UNIT  61 AT TIME STEP  5, STRESS PERIOD   6
 UBDSV3 SAVING " SURFACE LEAKAGE" ON UNIT  61 AT TIME STEP  5, STRESS PERIOD   6


UNSATURATED ZONE PACKAGE VOLUMETRIC BUDGET FOR  TIME STEP    5 STRESS PERIOD    6
  ------------------------------------------------------------------------------



     CUMULATIVE VOLUMES      L**3       RATES FOR THIS TIME STEP      L**3/T
     ------------------                 ------------------------

           IN:                                      IN:
           ---                                      ---
        INFILTRATION =  1022777463.8193          INFILTRATION =          84.7500

          OUT:                                     OUT:
          ----                                     ----
              UZF ET =  1117392541.7238                UZF ET =          63.2760
        UZF RECHARGE =   183557481.8300          UZF RECHARGE =           8.3658

            IN - OUT =  -278172559.7344              IN - OUT =          13.1081

          STORAGE:                                 STORAGE:
          --------                                 --------
      STORAGE CHANGE =  -277966365.7548        STORAGE CHANGE =          13.1081

 PERCENT DISCREPANCY IS DIFFERENCE BETWEEN IN-OUT MINUS CHANGE IN STORAGE
 DIVIDED BY THE AVERAGE OF IN AND OUT TIMES 100

 PERCENT DISCREPANCY =           0.00     PERCENT DISCREPANCY =           0.00









 STREAM LISTING     PERIOD      6   STEP        5

 LAYER ROW COL. STREAM  RCH.  FLOW INTO     FLOW TO   FLOW OUT OF   OVRLND.     DIRECT     STREAM       STREAM     STREAM     STREAM   STREAMBED  STREAMBED
                SEG.NO.  NO.  STRM. RCH.    AQUIFER    STRM. RCH.    RUNOFF     PRECIP       ET          HEAD       DEPTH      WIDTH   CONDCTNC.   GRADIENT

   1    1    1     1     1    2.5000E+01  1.0170E+00   2.3983E+01  0.000E+00  0.000E+00  0.000E+00  1.09422E+03  1.173E+00  1.296E+01  5.832E-01  5.812E-01
   1    2    2     1     2    2.3983E+01  3.0497E+00   2.0933E+01  0.000E+00  0.000E+00  0.000E+00  1.08920E+03  1.141E+00  1.254E+01  8.778E-01  1.158E+00
   1    3    3     1     3    2.0933E+01  2.9076E+00   1.8026E+01  0.000E+00  0.000E+00  0.000E+00  1.08351E+03  1.092E+00  1.184E+01  7.106E-01  1.364E+00
   1    3    4     1     4    1.8026E+01  2.4699E+00   1.5556E+01  0.000E+00  0.000E+00  0.000E+00  1.07845E+03  1.046E+00  1.100E+01  6.105E-01  1.349E+00
   1    4    5     2     1    5.5559E+00  2.6641E+00   2.8918E+00  0.000E+00  0.000E+00  0.000E+00  1.07235E+03  4.155E-01  1.200E+01  7.800E-01  1.138E+00
   1    5    6     2     2    2.8918E+00  1.9551E+00   9.3672E-01  0.000E+00  0.000E+00  0.000E+00  1.06677E+03  2.584E-01  1.200E+01  6.000E-01  1.086E+00
   1    6    6     2     3    9.3672E-01  9.3672E-01   0.0000E+00  0.000E+00  0.000E+00  0.000E+00  1.06181E+03  1.893E-02  1.200E+01  6.000E-01  1.006E+00
   1    7    6     2     4    0.0000E+00  0.0000E+00   0.0000E+00  0.000E+00  0.000E+00  0.000E+00  1.05708E+03  0.000E+00  1.200E+01  6.000E-01  1.000E+00
   1    8    6     2     5    0.0000E+00  0.0000E+00   0.0000E+00  0.000E+00  0.000E+00  0.000E+00  1.05236E+03  0.000E+00  1.200E+01  6.000E-01  1.000E+00
   1    3    5     3     1    1.0000E+01  2.6539E+00   7.3461E+00  0.000E+00  0.000E+00  0.000E+00  1.07555E+03  1.909E+00  9.636E+00  7.227E-01  1.836E+00
   1    3    6     3     2    7.3461E+00  1.3823E+00   5.9638E+00  0.000E+00  0.000E+00  0.000E+00  1.07264E+03  1.727E+00  8.909E+00  6.682E-01  1.034E+00
   1    3    7     3     3    5.9638E+00  5.3570E-01   5.4281E+00  0.000E+00  0.000E+00  0.000E+00  1.06987E+03  1.555E+00  8.218E+00  5.547E-01  4.828E-01
   1    4    8     3     4    5.4281E+00  1.5399E+00   3.8882E+00  0.000E+00  0.000E+00  0.000E+00  1.06682E+03  1.364E+00  7.455E+00  6.709E-01  1.148E+00
   1    5    8     3     5    3.8882E+00  1.5790E+00   2.3093E+00  0.000E+00  0.000E+00  0.000E+00  1.06362E+03  1.164E+00  6.655E+00  4.991E-01  1.582E+00
   1    6    8     3     6    2.3093E+00  5.5980E-01   1.7495E+00  0.000E+00  0.000E+00  0.000E+00  1.06158E+03  1.036E+00  6.145E+00  1.844E-01  1.518E+00
   1    5   10     4     1    1.0000E+01  9.0525E-01   9.0947E+00  0.000E+00  0.000E+00  0.000E+00  1.07835E+03  6.210E-01  1.000E+01  2.500E-01  1.207E+00
   1    5    9     4     2    9.0947E+00  1.7835E+00   7.3113E+00  0.000E+00  0.000E+00  0.000E+00  1.07148E+03  5.670E-01  1.000E+01  5.000E-01  1.189E+00
   1    6    8     4     3    7.3113E+00  1.2257E+00   6.0855E+00  0.000E+00  0.000E+00  0.000E+00  1.06368E+03  5.021E-01  1.000E+01  3.500E-01  1.167E+00
   1    6    8     5     1    7.8350E+00  1.0412E+00   6.7938E+00  0.000E+00  0.000E+00  0.000E+00  1.05860E+03  6.020E-01  1.254E+01  5.016E-01  6.919E-01
   1    7    7     5     2    6.7938E+00  1.9442E+00   4.8496E+00  0.000E+00  0.000E+00  0.000E+00  1.05406E+03  5.558E-01  1.094E+01  5.468E-01  1.185E+00
   1    8    7     5     3    4.8496E+00  1.1155E+00   3.7341E+00  0.000E+00  0.000E+00  0.000E+00  1.04975E+03  4.995E-01  9.107E+00  3.188E-01  1.167E+00
   1    8    6     5     4    3.7341E+00  6.8409E-01   3.0500E+00  0.000E+00  0.000E+00  0.000E+00  1.04671E+03  4.600E-01  7.908E+00  1.977E-01  1.153E+00
   1    9    6     6     1    3.0500E+00  1.9642E+00   1.0858E+00  0.000E+00  0.000E+00  0.000E+00  1.04300E+03  2.737E-01  1.200E+01  6.000E-01  1.091E+00
   1   10    7     6     2    1.0858E+00  1.0858E+00   0.0000E+00  0.000E+00  0.000E+00  0.000E+00  1.03822E+03  4.185E-02  1.200E+01  6.000E-01  1.014E+00
   1   11    7     6     3    0.0000E+00  0.0000E+00   0.0000E+00  0.000E+00  0.000E+00  0.000E+00  1.03364E+03  0.000E+00  1.200E+01  6.000E-01  1.000E+00
   1   12    7     6     4    0.0000E+00  0.0000E+00   0.0000E+00  0.000E+00  0.000E+00  0.000E+00  1.02909E+03  0.000E+00  1.200E+01  6.000E-01  2.947E-01
   1   13    7     6     5    0.0000E+00 -8.0908E-01   8.0908E-01  0.000E+00  0.000E+00  0.000E+00  1.02591E+03  0.000E+00  1.200E+01  2.400E-01 -1.124E+00
   1   14    9     7     1    1.5000E+02  2.0518E+00   1.4795E+02  0.000E+00  0.000E+00  0.000E+00  1.03987E+03  2.286E+00  5.529E+01  5.592E+00  1.223E-01
   1   13    8     7     2    1.4795E+02  2.9941E+00   1.4495E+02  0.000E+00  0.000E+00  0.000E+00  1.03477E+03  2.272E+00  5.523E+01  6.144E+00  1.624E-01
   1   13    7     7     3    1.4495E+02  2.2174E+00   1.4274E+02  0.000E+00  0.000E+00  0.000E+00  1.02968E+03  2.258E+00  5.516E+01  5.579E+00  1.325E-01
   1   13    6     8     1    1.4355E+02  5.5793E-01   1.4299E+02  0.000E+00  0.000E+00  0.000E+00  1.02464E+03  2.769E+00  4.015E+01  4.091E+00  4.546E-02
   1   13    5     8     2    1.4299E+02 -2.1044E+00   1.4509E+02  0.000E+00  0.000E+00  0.000E+00  1.01840E+03  2.774E+00  4.023E+01  4.099E+00 -1.711E-01
   1   13    4     8     3    1.4509E+02 -3.8258E+00   1.4892E+02  0.000E+00  0.000E+00  0.000E+00  1.01217E+03  2.796E+00  4.054E+01  4.131E+00 -3.087E-01
   1   13    3     8     4    1.4892E+02 -4.1097E+00   1.5303E+02  0.000E+00  0.000E+00  0.000E+00  1.00595E+03  2.824E+00  4.094E+01  4.172E+00 -3.283E-01
   1   13    2     8     5    1.5303E+02 -2.0831E+00   1.5511E+02  0.000E+00  0.000E+00  0.000E+00  9.99720E+02  2.845E+00  4.126E+01  4.204E+00 -1.652E-01
   1   13    1     8     6    1.5511E+02 -6.7814E-01   1.5579E+02  0.000E+00  0.000E+00  0.000E+00  9.94730E+02  2.855E+00  4.139E+01  2.531E+00 -8.931E-02



1
  VOLUMETRIC BUDGET FOR ENTIRE MODEL AT END OF TIME STEP  5 IN STRESS PERIOD   6
  ------------------------------------------------------------------------------

     CUMULATIVE VOLUMES      L**3       RATES FOR THIS TIME STEP      L**3/T
     ------------------                 ------------------------

           IN:                                      IN:
           ---                                      ---
             STORAGE =    48544380.0000               STORAGE =           3.5508
       CONSTANT HEAD =           0.0000         CONSTANT HEAD =           0.0000
               WELLS =           0.0000                 WELLS =           0.0000
     HEAD DEP BOUNDS =     2849574.0000       HEAD DEP BOUNDS =           0.2090
        UZF RECHARGE =   183557552.0000          UZF RECHARGE =           8.3658
               GW ET =           0.0000                 GW ET =           0.0000
     SURFACE LEAKAGE =           0.0000       SURFACE LEAKAGE =           0.0000
      STREAM LEAKAGE =   589716032.0000        STREAM LEAKAGE =          42.8212

            TOTAL IN =   824667520.0000              TOTAL IN =          54.9468

          OUT:                                     OUT:
          ----                                     ----
             STORAGE =   177135952.0000               STORAGE =          22.7370
       CONSTANT HEAD =           0.0000         CONSTANT HEAD =           0.0000
               WELLS =   236519984.0000                 WELLS =           0.0000
     HEAD DEP BOUNDS =     3591620.5000       HEAD DEP BOUNDS =           0.2659
        UZF RECHARGE =           0.0000          UZF RECHARGE =           0.0000
               GW ET =   223908832.0000                 GW ET =          18.2669
     SURFACE LEAKAGE =           0.0000       SURFACE LEAKAGE =           0.0000
      STREAM LEAKAGE =   183384928.0000        STREAM LEAKAGE =          13.6103

           TOTAL OUT =   824541312.0000             TOTAL OUT =          54.8801

            IN - OUT =      126208.0000              IN - OUT =       6.6685E-02

 PERCENT DISCREPANCY =           0.02     PERCENT DISCREPANCY =           0.12






          TIME SUMMARY AT END OF TIME STEP   5 IN STRESS PERIOD    6
                    SECONDS     MINUTES      HOURS       DAYS        YEARS
                    -----------------------------------------------------------
   TIME STEP LENGTH 1.21100E+05  2018.3      33.639      1.4016     3.83743E-03
 STRESS PERIOD TIME 5.04972E+05  8416.2      140.27      5.8446     1.60016E-02
         TOTAL TIME 1.36450E+07 2.27416E+05  3790.3      157.93     0.43238    
1
 
 SOLVING FOR HEAD 
     8 ITERATIONS FOR TIME STEP   6 IN STRESS PERIOD    6

 MAXIMUM HEAD CHANGE FOR EACH ITERATION:

    HEAD CHANGE   HEAD CHANGE   HEAD CHANGE   HEAD CHANGE   HEAD CHANGE
  LAYER,ROW,COL LAYER,ROW,COL LAYER,ROW,COL LAYER,ROW,COL LAYER,ROW,COL
 ----------------------------------------------------------------------
     0.4028E-01   -0.9804E-02   -0.4456E-02   -0.2025E-02   -0.1013E-02
  (  1,  9,  5) (  1,  3,  6) (  1,  3,  6) (  1,  3,  6) (  1,  3,  6)
    -0.4278E-03   -0.2389E-03   -0.1232E-03
  (  1,  3,  6) (  1,  3,  6) (  1,  3,  6)


 NO OUTPUT CONTROL FOR STRESS PERIOD    6   TIME STEP   6
 
 SOLVING FOR HEAD 
     7 ITERATIONS FOR TIME STEP   7 IN STRESS PERIOD    6

 MAXIMUM HEAD CHANGE FOR EACH ITERATION:

    HEAD CHANGE   HEAD CHANGE   HEAD CHANGE   HEAD CHANGE   HEAD CHANGE
  LAYER,ROW,COL LAYER,ROW,COL LAYER,ROW,COL LAYER,ROW,COL LAYER,ROW,COL
 ----------------------------------------------------------------------
     0.4310E-01   -0.9831E-02   -0.4526E-02   -0.1969E-02   -0.9775E-03
  (  1,  9,  5) (  1,  3,  6) (  1,  3,  6) (  1,  3,  6) (  1,  3,  6)
    -0.4419E-03   -0.1703E-03
  (  1,  3,  6) (  1,  3,  6)


 NO OUTPUT CONTROL FOR STRESS PERIOD    6   TIME STEP   7
 
 SOLVING FOR HEAD 
     8 ITERATIONS FOR TIME STEP   8 IN STRESS PERIOD    6

 MAXIMUM HEAD CHANGE FOR EACH ITERATION:

    HEAD CHANGE   HEAD CHANGE   HEAD CHANGE   HEAD CHANGE   HEAD CHANGE
  LAYER,ROW,COL LAYER,ROW,COL LAYER,ROW,COL LAYER,ROW,COL LAYER,ROW,COL
 ----------------------------------------------------------------------
     0.4682E-01    0.1440E-01    0.4646E-02   -0.1972E-02   -0.9371E-03
  (  1,  7,  4) (  1,  6,  5) (  1,  6,  5) (  1,  3,  6) (  1,  3,  6)
    -0.4561E-03   -0.2322E-03   -0.1246E-03
  (  1,  3,  6) (  1,  3,  5) (  1,  3,  6)


 NO OUTPUT CONTROL FOR STRESS PERIOD    6   TIME STEP   8
 
 SOLVING FOR HEAD 
     7 ITERATIONS FOR TIME STEP   9 IN STRESS PERIOD    6

 MAXIMUM HEAD CHANGE FOR EACH ITERATION:

    HEAD CHANGE   HEAD CHANGE   HEAD CHANGE   HEAD CHANGE   HEAD CHANGE
  LAYER,ROW,COL LAYER,ROW,COL LAYER,ROW,COL LAYER,ROW,COL LAYER,ROW,COL
 ----------------------------------------------------------------------
     0.5099E-01    0.1627E-01    0.5279E-02   -0.2011E-02   -0.8884E-03
  (  1,  7,  4) (  1,  9,  5) (  1,  9,  5) (  1,  3,  6) (  1,  3,  6)
    -0.4225E-03   -0.1805E-03
  (  1,  3,  6) (  1,  3,  6)


 NO OUTPUT CONTROL FOR STRESS PERIOD    6   TIME STEP   9
 
 SOLVING FOR HEAD 
     7 ITERATIONS FOR TIME STEP  10 IN STRESS PERIOD    6

 MAXIMUM HEAD CHANGE FOR EACH ITERATION:

    HEAD CHANGE   HEAD CHANGE   HEAD CHANGE   HEAD CHANGE   HEAD CHANGE
  LAYER,ROW,COL LAYER,ROW,COL LAYER,ROW,COL LAYER,ROW,COL LAYER,ROW,COL
 ----------------------------------------------------------------------
     0.5589E-01    0.1770E-01    0.5838E-02    0.1932E-02    0.6766E-03
  (  1,  7,  4) (  1,  7,  5) (  1,  7,  5) (  1,  7,  5) (  1,  8,  5)
    -0.3274E-03   -0.1646E-03
  (  1,  3,  7) (  1,  3,  5)


 OUTPUT CONTROL FOR STRESS PERIOD    6   TIME STEP  10
    PRINT BUDGET
    SAVE BUDGET

  HEAD DEP BOUNDS   PERIOD    6   STEP  10
 BOUNDARY      1   LAYER   1   ROW    13   COL     1   RATE   -0.265154    
 BOUNDARY      2   LAYER   1   ROW    14   COL     9   RATE    0.209007    
 UBDSV3 SAVING "           GW ET" ON UNIT  61 AT TIME STEP 10, STRESS PERIOD   6
 UBDSV3 SAVING "    UZF RECHARGE" ON UNIT  61 AT TIME STEP 10, STRESS PERIOD   6
 UBDSV3 SAVING " SURFACE LEAKAGE" ON UNIT  61 AT TIME STEP 10, STRESS PERIOD   6


UNSATURATED ZONE PACKAGE VOLUMETRIC BUDGET FOR  TIME STEP   10 STRESS PERIOD    6
  ------------------------------------------------------------------------------



     CUMULATIVE VOLUMES      L**3       RATES FOR THIS TIME STEP      L**3/T
     ------------------                 ------------------------

           IN:                                      IN:
           ---                                      ---
        INFILTRATION =  1091701403.6514          INFILTRATION =          84.7500

          OUT:                                     OUT:
          ----                                     ----
              UZF ET =  1169939453.9117                UZF ET =          65.3730
        UZF RECHARGE =   192198864.2937          UZF RECHARGE =          12.9991

            IN - OUT =  -270436914.5541              IN - OUT =           6.3779

          STORAGE:                                 STORAGE:
          --------                                 --------
      STORAGE CHANGE =  -270262610.3496        STORAGE CHANGE =           6.3018

 PERCENT DISCREPANCY IS DIFFERENCE BETWEEN IN-OUT MINUS CHANGE IN STORAGE
 DIVIDED BY THE AVERAGE OF IN AND OUT TIMES 100

 PERCENT DISCREPANCY =           0.00     PERCENT DISCREPANCY =           0.09









 STREAM LISTING     PERIOD      6   STEP       10

 LAYER ROW COL. STREAM  RCH.  FLOW INTO     FLOW TO   FLOW OUT OF   OVRLND.     DIRECT     STREAM       STREAM     STREAM     STREAM   STREAMBED  STREAMBED
                SEG.NO.  NO.  STRM. RCH.    AQUIFER    STRM. RCH.    RUNOFF     PRECIP       ET          HEAD       DEPTH      WIDTH   CONDCTNC.   GRADIENT

   1    1    1     1     1    2.5000E+01  1.0235E+00   2.3976E+01  0.000E+00  0.000E+00  0.000E+00  1.09422E+03  1.173E+00  1.296E+01  5.832E-01  5.850E-01
   1    2    2     1     2    2.3976E+01  3.0557E+00   2.0921E+01  0.000E+00  0.000E+00  0.000E+00  1.08920E+03  1.141E+00  1.254E+01  8.777E-01  1.161E+00
   1    3    3     1     3    2.0921E+01  2.9066E+00   1.8014E+01  0.000E+00  0.000E+00  0.000E+00  1.08351E+03  1.091E+00  1.184E+01  7.104E-01  1.364E+00
   1    3    4     1     4    1.8014E+01  2.4690E+00   1.5545E+01  0.000E+00  0.000E+00  0.000E+00  1.07845E+03  1.045E+00  1.100E+01  6.103E-01  1.348E+00
   1    4    5     2     1    5.5452E+00  2.6636E+00   2.8816E+00  0.000E+00  0.000E+00  0.000E+00  1.07235E+03  4.149E-01  1.200E+01  7.800E-01  1.138E+00
   1    5    6     2     2    2.8816E+00  1.9546E+00   9.2703E-01  0.000E+00  0.000E+00  0.000E+00  1.06677E+03  2.576E-01  1.200E+01  6.000E-01  1.086E+00
   1    6    6     2     3    9.2703E-01  9.2703E-01   0.0000E+00  0.000E+00  0.000E+00  0.000E+00  1.06180E+03  9.409E-03  1.200E+01  6.000E-01  1.003E+00
   1    7    6     2     4    0.0000E+00  0.0000E+00   0.0000E+00  0.000E+00  0.000E+00  0.000E+00  1.05708E+03  0.000E+00  1.200E+01  6.000E-01  1.000E+00
   1    8    6     2     5    0.0000E+00  0.0000E+00   0.0000E+00  0.000E+00  0.000E+00  0.000E+00  1.05236E+03  0.000E+00  1.200E+01  6.000E-01  1.000E+00
   1    3    5     3     1    1.0000E+01  2.7740E+00   7.2260E+00  0.000E+00  0.000E+00  0.000E+00  1.07555E+03  1.909E+00  9.636E+00  7.227E-01  1.919E+00
   1    3    6     3     2    7.2260E+00  1.4922E+00   5.7338E+00  0.000E+00  0.000E+00  0.000E+00  1.07264E+03  1.727E+00  8.909E+00  6.682E-01  1.117E+00
   1    3    7     3     3    5.7338E+00  6.3062E-01   5.1031E+00  0.000E+00  0.000E+00  0.000E+00  1.06987E+03  1.555E+00  8.218E+00  5.547E-01  5.684E-01
   1    4    8     3     4    5.1031E+00  1.5297E+00   3.5734E+00  0.000E+00  0.000E+00  0.000E+00  1.06682E+03  1.364E+00  7.455E+00  6.709E-01  1.140E+00
   1    5    8     3     5    3.5734E+00  1.5790E+00   1.9944E+00  0.000E+00  0.000E+00  0.000E+00  1.06362E+03  1.164E+00  6.655E+00  4.991E-01  1.582E+00
   1    6    8     3     6    1.9944E+00  5.5980E-01   1.4346E+00  0.000E+00  0.000E+00  0.000E+00  1.06158E+03  1.036E+00  6.145E+00  1.844E-01  1.518E+00
   1    5   10     4     1    1.0000E+01  9.0525E-01   9.0947E+00  0.000E+00  0.000E+00  0.000E+00  1.07835E+03  6.210E-01  1.000E+01  2.500E-01  1.207E+00
   1    5    9     4     2    9.0947E+00  1.7835E+00   7.3113E+00  0.000E+00  0.000E+00  0.000E+00  1.07148E+03  5.670E-01  1.000E+01  5.000E-01  1.189E+00
   1    6    8     4     3    7.3113E+00  1.2257E+00   6.0855E+00  0.000E+00  0.000E+00  0.000E+00  1.06368E+03  5.021E-01  1.000E+01  3.500E-01  1.167E+00
   1    6    8     5     1    7.5202E+00  1.0115E+00   6.5087E+00  0.000E+00  0.000E+00  0.000E+00  1.05859E+03  5.932E-01  1.223E+01  4.892E-01  6.893E-01
   1    7    7     5     2    6.5087E+00  1.8876E+00   4.6211E+00  0.000E+00  0.000E+00  0.000E+00  1.05405E+03  5.471E-01  1.064E+01  5.322E-01  1.182E+00
   1    8    7     5     3    4.6211E+00  1.0796E+00   3.5415E+00  0.000E+00  0.000E+00  0.000E+00  1.04974E+03  4.908E-01  8.837E+00  3.093E-01  1.164E+00
   1    8    6     5     4    3.5415E+00  6.6030E-01   2.8812E+00  0.000E+00  0.000E+00  0.000E+00  1.04670E+03  4.513E-01  7.653E+00  1.913E-01  1.150E+00
   1    9    6     6     1    2.8812E+00  1.9563E+00   9.2490E-01  0.000E+00  0.000E+00  0.000E+00  1.04299E+03  2.604E-01  1.200E+01  6.000E-01  1.087E+00
   1   10    7     6     2    9.2490E-01  9.2490E-01   0.0000E+00  0.000E+00  0.000E+00  0.000E+00  1.03819E+03  9.502E-03  1.200E+01  6.000E-01  1.003E+00
   1   11    7     6     3    0.0000E+00  0.0000E+00   0.0000E+00  0.000E+00  0.000E+00  0.000E+00  1.03364E+03  0.000E+00  1.200E+01  6.000E-01  1.000E+00
   1   12    7     6     4    0.0000E+00  0.0000E+00   0.0000E+00  0.000E+00  0.000E+00  0.000E+00  1.02909E+03  0.000E+00  1.200E+01  6.000E-01  2.929E-01
   1   13    7     6     5    0.0000E+00 -8.0499E-01   8.0499E-01  0.000E+00  0.000E+00  0.000E+00  1.02591E+03  0.000E+00  1.200E+01  2.400E-01 -1.118E+00
   1   14    9     7     1    1.5000E+02  2.0505E+00   1.4795E+02  0.000E+00  0.000E+00  0.000E+00  1.03987E+03  2.286E+00  5.529E+01  5.592E+00  1.222E-01
   1   13    8     7     2    1.4795E+02  3.0006E+00   1.4495E+02  0.000E+00  0.000E+00  0.000E+00  1.03477E+03  2.272E+00  5.523E+01  6.144E+00  1.628E-01
   1   13    7     7     3    1.4495E+02  2.3109E+00   1.4264E+02  0.000E+00  0.000E+00  0.000E+00  1.02968E+03  2.258E+00  5.516E+01  5.578E+00  1.381E-01
   1   13    6     8     1    1.4344E+02  6.3772E-01   1.4281E+02  0.000E+00  0.000E+00  0.000E+00  1.02464E+03  2.768E+00  4.013E+01  4.090E+00  5.198E-02
   1   13    5     8     2    1.4281E+02 -2.1814E+00   1.4499E+02  0.000E+00  0.000E+00  0.000E+00  1.01840E+03  2.773E+00  4.021E+01  4.098E+00 -1.774E-01
   1   13    4     8     3    1.4499E+02 -3.9336E+00   1.4892E+02  0.000E+00  0.000E+00  0.000E+00  1.01217E+03  2.795E+00  4.053E+01  4.130E+00 -3.175E-01
   1   13    3     8     4    1.4892E+02 -4.2044E+00   1.5312E+02  0.000E+00  0.000E+00  0.000E+00  1.00595E+03  2.824E+00  4.095E+01  4.173E+00 -3.359E-01
   1   13    2     8     5    1.5312E+02 -2.0755E+00   1.5520E+02  0.000E+00  0.000E+00  0.000E+00  9.99721E+02  2.846E+00  4.127E+01  4.205E+00 -1.645E-01
   1   13    1     8     6    1.5520E+02 -6.2657E-01   1.5583E+02  0.000E+00  0.000E+00  0.000E+00  9.94730E+02  2.855E+00  4.140E+01  2.531E+00 -8.251E-02



1
  VOLUMETRIC BUDGET FOR ENTIRE MODEL AT END OF TIME STEP 10 IN STRESS PERIOD   6
  ------------------------------------------------------------------------------

     CUMULATIVE VOLUMES      L**3       RATES FOR THIS TIME STEP      L**3/T
     ------------------                 ------------------------

           IN:                                      IN:
           ---                                      ---
             STORAGE =    50672084.0000               STORAGE =           1.8339
       CONSTANT HEAD =           0.0000         CONSTANT HEAD =           0.0000
               WELLS =           0.0000                 WELLS =           0.0000
     HEAD DEP BOUNDS =     3019554.0000       HEAD DEP BOUNDS =           0.2090
        UZF RECHARGE =   192198928.0000          UZF RECHARGE =          12.9991
               GW ET =           0.0000                 GW ET =           0.0000
     SURFACE LEAKAGE =           0.0000       SURFACE LEAKAGE =           0.0000
      STREAM LEAKAGE =   624635776.0000        STREAM LEAKAGE =          42.9997

            TOTAL IN =   870526336.0000              TOTAL IN =          58.0418

          OUT:                                     OUT:
          ----                                     ----
             STORAGE =   196829632.0000               STORAGE =          25.8221
       CONSTANT HEAD =           0.0000         CONSTANT HEAD =           0.0000
               WELLS =   236519984.0000                 WELLS =           0.0000
     HEAD DEP BOUNDS =     3807493.2500       HEAD DEP BOUNDS =           0.2652
        UZF RECHARGE =           0.0000          UZF RECHARGE =           0.0000
               GW ET =   238689584.0000                 GW ET =          18.1274
     SURFACE LEAKAGE =           0.0000       SURFACE LEAKAGE =           0.0000
      STREAM LEAKAGE =   194553200.0000        STREAM LEAKAGE =          13.8264

           TOTAL OUT =   870399936.0000             TOTAL OUT =          58.0411

            IN - OUT =      126400.0000              IN - OUT =       6.3324E-04

 PERCENT DISCREPANCY =           0.01     PERCENT DISCREPANCY =           0.00






          TIME SUMMARY AT END OF TIME STEP  10 IN STRESS PERIOD    6
                    SECONDS     MINUTES      HOURS       DAYS        YEARS
                    -----------------------------------------------------------
   TIME STEP LENGTH 1.95033E+05  3250.6      54.176      2.2573     6.18023E-03
 STRESS PERIOD TIME 1.31823E+06  21971.      366.18      15.257     4.17723E-02
         TOTAL TIME 1.44582E+07 2.40970E+05  4016.2      167.34     0.45815    
1
 
 SOLVING FOR HEAD 
    10 ITERATIONS FOR TIME STEP  11 IN STRESS PERIOD    6

 MAXIMUM HEAD CHANGE FOR EACH ITERATION:

    HEAD CHANGE   HEAD CHANGE   HEAD CHANGE   HEAD CHANGE   HEAD CHANGE
  LAYER,ROW,COL LAYER,ROW,COL LAYER,ROW,COL LAYER,ROW,COL LAYER,ROW,COL
 ----------------------------------------------------------------------
     0.6221E-01    0.2087E-01    0.1104E-01    0.5852E-02    0.3112E-02
  (  1,  7,  4) (  1,  3,  6) (  1,  3,  6) (  1,  3,  6) (  1,  3,  6)
     0.1594E-02    0.8645E-03    0.4765E-03    0.2162E-03    0.1643E-03
  (  1,  3,  6) (  1,  3,  6) (  1,  3,  6) (  1,  3,  6) (  1,  3,  6)


 NO OUTPUT CONTROL FOR STRESS PERIOD    6   TIME STEP  11
 
 SOLVING FOR HEAD 
    10 ITERATIONS FOR TIME STEP  12 IN STRESS PERIOD    6

 MAXIMUM HEAD CHANGE FOR EACH ITERATION:

    HEAD CHANGE   HEAD CHANGE   HEAD CHANGE   HEAD CHANGE   HEAD CHANGE
  LAYER,ROW,COL LAYER,ROW,COL LAYER,ROW,COL LAYER,ROW,COL LAYER,ROW,COL
 ----------------------------------------------------------------------
     0.6716E-01    0.2548E-01    0.1321E-01    0.6908E-02    0.3606E-02
  (  1,  8,  4) (  1,  3,  5) (  1,  3,  5) (  1,  3,  5) (  1,  3,  5)
     0.1904E-02    0.9703E-03    0.5221E-03    0.2356E-03    0.1129E-03
  (  1,  3,  5) (  1,  3,  5) (  1,  3,  5) (  1,  3,  5) (  1,  3,  5)


 NO OUTPUT CONTROL FOR STRESS PERIOD    6   TIME STEP  12
 
 SOLVING FOR HEAD 
    10 ITERATIONS FOR TIME STEP  13 IN STRESS PERIOD    6

 MAXIMUM HEAD CHANGE FOR EACH ITERATION:

    HEAD CHANGE   HEAD CHANGE   HEAD CHANGE   HEAD CHANGE   HEAD CHANGE
  LAYER,ROW,COL LAYER,ROW,COL LAYER,ROW,COL LAYER,ROW,COL LAYER,ROW,COL
 ----------------------------------------------------------------------
     0.7247E-01    0.2426E-01    0.1129E-01    0.5832E-02    0.3018E-02
  (  1,  8,  4) (  1,  8,  4) (  1,  3,  5) (  1,  3,  5) (  1,  3,  5)
     0.1534E-02    0.8054E-03    0.4464E-03    0.2320E-03    0.1180E-03
  (  1,  3,  5) (  1,  3,  5) (  1,  3,  5) (  1,  3,  5) (  1,  3,  5)


 NO OUTPUT CONTROL FOR STRESS PERIOD    6   TIME STEP  13
 
 SOLVING FOR HEAD 
    10 ITERATIONS FOR TIME STEP  14 IN STRESS PERIOD    6

 MAXIMUM HEAD CHANGE FOR EACH ITERATION:

    HEAD CHANGE   HEAD CHANGE   HEAD CHANGE   HEAD CHANGE   HEAD CHANGE
  LAYER,ROW,COL LAYER,ROW,COL LAYER,ROW,COL LAYER,ROW,COL LAYER,ROW,COL
 ----------------------------------------------------------------------
     0.7786E-01    0.2604E-01    0.1036E-01    0.5336E-02    0.2693E-02
  (  1,  8,  4) (  1,  8,  4) (  1,  3,  5) (  1,  3,  5) (  1,  3,  5)
     0.1395E-02    0.7443E-03    0.3845E-03    0.2305E-03    0.1094E-03
  (  1,  3,  5) (  1,  3,  5) (  1,  3,  6) (  1,  3,  5) (  1,  3,  6)


 NO OUTPUT CONTROL FOR STRESS PERIOD    6   TIME STEP  14
 
 SOLVING FOR HEAD 
    12 ITERATIONS FOR TIME STEP  15 IN STRESS PERIOD    6

 MAXIMUM HEAD CHANGE FOR EACH ITERATION:

    HEAD CHANGE   HEAD CHANGE   HEAD CHANGE   HEAD CHANGE   HEAD CHANGE
  LAYER,ROW,COL LAYER,ROW,COL LAYER,ROW,COL LAYER,ROW,COL LAYER,ROW,COL
 ----------------------------------------------------------------------
     0.1387        0.7763E-01    0.4343E-01    0.2428E-01    0.1348E-01
  (  1,  2,  6) (  1,  2,  6) (  1,  2,  6) (  1,  2,  6) (  1,  2,  6)
     0.7441E-02    0.4104E-02    0.2273E-02    0.1230E-02    0.7294E-03
  (  1,  2,  6) (  1,  2,  6) (  1,  2,  6) (  1,  2,  6) (  1,  2,  6)
     0.4368E-03    0.1840E-03
  (  1,  2,  6) (  1,  2,  6)


 OUTPUT CONTROL FOR STRESS PERIOD    6   TIME STEP  15
    PRINT BUDGET
    PRINT HEAD FOR ALL LAYERS
    SAVE HEAD FOR ALL LAYERS
    SAVE BUDGET

  HEAD DEP BOUNDS   PERIOD    6   STEP  15
 BOUNDARY      1   LAYER   1   ROW    13   COL     1   RATE   -0.264316    
 BOUNDARY      2   LAYER   1   ROW    14   COL     9   RATE    0.208989    
 UBDSV3 SAVING "           GW ET" ON UNIT  61 AT TIME STEP 15, STRESS PERIOD   6
 UBDSV3 SAVING "    UZF RECHARGE" ON UNIT  61 AT TIME STEP 15, STRESS PERIOD   6
 UBDSV3 SAVING " SURFACE LEAKAGE" ON UNIT  61 AT TIME STEP 15, STRESS PERIOD   6


UNSATURATED ZONE PACKAGE VOLUMETRIC BUDGET FOR  TIME STEP   15 STRESS PERIOD    6
  ------------------------------------------------------------------------------



     CUMULATIVE VOLUMES      L**3       RATES FOR THIS TIME STEP      L**3/T
     ------------------                 ------------------------

           IN:                                      IN:
           ---                                      ---
        INFILTRATION =  1202704104.7451          INFILTRATION =          84.7500

          OUT:                                     OUT:
          ----                                     ----
              UZF ET =  1257436207.1251                UZF ET =          67.6009
        UZF RECHARGE =   214667925.5316          UZF RECHARGE =          18.8508

            IN - OUT =  -269400027.9116              IN - OUT =          -1.7017

          STORAGE:                                 STORAGE:
          --------                                 --------
      STORAGE CHANGE =  -269215480.4231        STORAGE CHANGE =          -1.6706

 PERCENT DISCREPANCY IS DIFFERENCE BETWEEN IN-OUT MINUS CHANGE IN STORAGE
 DIVIDED BY THE AVERAGE OF IN AND OUT TIMES 100

 PERCENT DISCREPANCY =           0.00     PERCENT DISCREPANCY =          -0.04









 STREAM LISTING     PERIOD      6   STEP       15

 LAYER ROW COL. STREAM  RCH.  FLOW INTO     FLOW TO   FLOW OUT OF   OVRLND.     DIRECT     STREAM       STREAM     STREAM     STREAM   STREAMBED  STREAMBED
                SEG.NO.  NO.  STRM. RCH.    AQUIFER    STRM. RCH.    RUNOFF     PRECIP       ET          HEAD       DEPTH      WIDTH   CONDCTNC.   GRADIENT

   1    1    1     1     1    2.5000E+01  1.0322E+00   2.3968E+01  0.000E+00  0.000E+00  0.000E+00  1.09422E+03  1.172E+00  1.296E+01  5.832E-01  5.900E-01
   1    2    2     1     2    2.3968E+01  3.0614E+00   2.0906E+01  0.000E+00  0.000E+00  0.000E+00  1.08920E+03  1.141E+00  1.254E+01  8.775E-01  1.163E+00
   1    3    3     1     3    2.0906E+01  2.9054E+00   1.8001E+01  0.000E+00  0.000E+00  0.000E+00  1.08351E+03  1.091E+00  1.184E+01  7.101E-01  1.364E+00
   1    3    4     1     4    1.8001E+01  2.4679E+00   1.5533E+01  0.000E+00  0.000E+00  0.000E+00  1.07845E+03  1.045E+00  1.099E+01  6.101E-01  1.348E+00
   1    4    5     2     1    5.5331E+00  2.6631E+00   2.8701E+00  0.000E+00  0.000E+00  0.000E+00  1.07235E+03  4.142E-01  1.200E+01  7.800E-01  1.138E+00
   1    5    6     2     2    2.8701E+00  1.9540E+00   9.1604E-01  0.000E+00  0.000E+00  0.000E+00  1.06677E+03  2.567E-01  1.200E+01  6.000E-01  1.086E+00
   1    6    6     2     3    9.1604E-01  9.1604E-01   0.0000E+00  0.000E+00  0.000E+00  0.000E+00  1.06180E+03  9.342E-03  1.200E+01  6.000E-01  1.003E+00
   1    7    6     2     4    0.0000E+00  0.0000E+00   0.0000E+00  0.000E+00  0.000E+00  0.000E+00  1.05708E+03  0.000E+00  1.200E+01  6.000E-01  1.000E+00
   1    8    6     2     5    0.0000E+00  0.0000E+00   0.0000E+00  0.000E+00  0.000E+00  0.000E+00  1.05236E+03  0.000E+00  1.200E+01  6.000E-01  1.000E+00
   1    3    5     3     1    1.0000E+01  2.5229E+00   7.4771E+00  0.000E+00  0.000E+00  0.000E+00  1.07555E+03  1.909E+00  9.636E+00  7.227E-01  1.745E+00
   1    3    6     3     2    7.4771E+00  1.2491E+00   6.2281E+00  0.000E+00  0.000E+00  0.000E+00  1.07264E+03  1.727E+00  8.909E+00  6.682E-01  9.347E-01
   1    3    7     3     3    6.2281E+00  5.3063E-01   5.6974E+00  0.000E+00  0.000E+00  0.000E+00  1.06987E+03  1.555E+00  8.218E+00  5.547E-01  4.783E-01
   1    4    8     3     4    5.6974E+00  1.5172E+00   4.1802E+00  0.000E+00  0.000E+00  0.000E+00  1.06682E+03  1.364E+00  7.455E+00  6.709E-01  1.131E+00
   1    5    8     3     5    4.1802E+00  1.5790E+00   2.6012E+00  0.000E+00  0.000E+00  0.000E+00  1.06362E+03  1.164E+00  6.655E+00  4.991E-01  1.582E+00
   1    6    8     3     6    2.6012E+00  5.5980E-01   2.0414E+00  0.000E+00  0.000E+00  0.000E+00  1.06158E+03  1.036E+00  6.145E+00  1.844E-01  1.518E+00
   1    5   10     4     1    1.0000E+01  9.0525E-01   9.0947E+00  0.000E+00  0.000E+00  0.000E+00  1.07835E+03  6.210E-01  1.000E+01  2.500E-01  1.207E+00
   1    5    9     4     2    9.0947E+00  1.7835E+00   7.3113E+00  0.000E+00  0.000E+00  0.000E+00  1.07148E+03  5.670E-01  1.000E+01  5.000E-01  1.189E+00
   1    6    8     4     3    7.3113E+00  1.2257E+00   6.0855E+00  0.000E+00  0.000E+00  0.000E+00  1.06368E+03  5.021E-01  1.000E+01  3.500E-01  1.167E+00
   1    6    8     5     1    8.1270E+00  1.0618E+00   7.0651E+00  0.000E+00  0.000E+00  0.000E+00  1.05861E+03  6.100E-01  1.283E+01  5.131E-01  6.898E-01
   1    7    7     5     2    7.0651E+00  1.9973E+00   5.0679E+00  0.000E+00  0.000E+00  0.000E+00  1.05406E+03  5.638E-01  1.121E+01  5.604E-01  1.188E+00
   1    8    7     5     3    5.0679E+00  1.1492E+00   3.9186E+00  0.000E+00  0.000E+00  0.000E+00  1.04976E+03  5.076E-01  9.361E+00  3.276E-01  1.169E+00
   1    8    6     5     4    3.9186E+00  7.0646E-01   3.2122E+00  0.000E+00  0.000E+00  0.000E+00  1.04672E+03  4.681E-01  8.148E+00  2.037E-01  1.156E+00
   1    9    6     6     1    3.2122E+00  1.9717E+00   1.2405E+00  0.000E+00  0.000E+00  0.000E+00  1.04301E+03  2.861E-01  1.200E+01  6.000E-01  1.095E+00
   1   10    7     6     2    1.2405E+00  1.2405E+00   0.0000E+00  0.000E+00  0.000E+00  0.000E+00  1.03823E+03  4.532E-02  1.200E+01  6.000E-01  1.015E+00
   1   11    7     6     3    0.0000E+00  0.0000E+00   0.0000E+00  0.000E+00  0.000E+00  0.000E+00  1.03364E+03  0.000E+00  1.200E+01  6.000E-01  1.000E+00
   1   12    7     6     4    0.0000E+00  0.0000E+00   0.0000E+00  0.000E+00  0.000E+00  0.000E+00  1.02909E+03  0.000E+00  1.200E+01  6.000E-01  2.911E-01
   1   13    7     6     5    0.0000E+00 -8.0167E-01   8.0167E-01  0.000E+00  0.000E+00  0.000E+00  1.02591E+03  0.000E+00  1.200E+01  2.400E-01 -1.113E+00
   1   14    9     7     1    1.5000E+02  2.0479E+00   1.4795E+02  0.000E+00  0.000E+00  0.000E+00  1.03987E+03  2.286E+00  5.529E+01  5.592E+00  1.221E-01
   1   13    8     7     2    1.4795E+02  3.0043E+00   1.4495E+02  0.000E+00  0.000E+00  0.000E+00  1.03477E+03  2.272E+00  5.523E+01  6.144E+00  1.630E-01
   1   13    7     7     3    1.4495E+02  2.3868E+00   1.4256E+02  0.000E+00  0.000E+00  0.000E+00  1.02968E+03  2.258E+00  5.516E+01  5.578E+00  1.426E-01
   1   13    6     8     1    1.4336E+02  6.9074E-01   1.4267E+02  0.000E+00  0.000E+00  0.000E+00  1.02464E+03  2.767E+00  4.012E+01  4.088E+00  5.632E-02
   1   13    5     8     2    1.4267E+02 -2.2305E+00   1.4490E+02  0.000E+00  0.000E+00  0.000E+00  1.01840E+03  2.773E+00  4.020E+01  4.097E+00 -1.815E-01
   1   13    4     8     3    1.4490E+02 -3.9837E+00   1.4889E+02  0.000E+00  0.000E+00  0.000E+00  1.01217E+03  2.795E+00  4.053E+01  4.130E+00 -3.216E-01
   1   13    3     8     4    1.4889E+02 -4.2643E+00   1.5315E+02  0.000E+00  0.000E+00  0.000E+00  1.00595E+03  2.824E+00  4.095E+01  4.173E+00 -3.407E-01
   1   13    2     8     5    1.5315E+02 -2.0802E+00   1.5523E+02  0.000E+00  0.000E+00  0.000E+00  9.99721E+02  2.846E+00  4.127E+01  4.205E+00 -1.649E-01
   1   13    1     8     6    1.5523E+02 -5.7062E-01   1.5580E+02  0.000E+00  0.000E+00  0.000E+00  9.94730E+02  2.855E+00  4.140E+01  2.531E+00 -7.514E-02



1
              HEAD IN LAYER   1 AT END OF TIME STEP  15 IN STRESS PERIOD    6
  ---------------------------------------------------------------------------

           1       2       3       4       5       6       7       8       9      10
 ...................................................................................
   1  1092.45 1088.68 6999.00 6999.00 6999.00 6999.00 6999.00 6999.00 6999.00 6999.00
   2  1089.14 1085.71 1079.19 6999.00 6999.00 1072.43 1071.25 1070.48 6999.00 6999.00
   3  6999.00 1077.42 1074.39 1070.29 1072.05 1070.77 1068.92 1068.15 6999.00 6999.00
   4  1067.83 1068.38 1066.68 1063.18 1062.10 1060.86 1061.65 1064.56 1063.82 6999.00
   5  1063.68 1061.29 1058.66 1056.66 1056.45 1057.13 1057.12 1059.35 1062.90 1065.34
   6  1059.00 1055.35 1052.20 1050.54 1050.92 1052.48 1053.97 1056.54 1059.38 1063.66
   7  1055.34 1049.68 1046.32 1044.84 1045.56 1047.47 1050.21 1052.70 1054.13 6999.00
   8  6999.00 1042.34 1040.26 1039.25 1040.26 1042.39 1044.48 1047.12 1049.14 6999.00
   9  6999.00 1035.39 1034.28 1033.93 1035.25 1037.52 1038.68 1040.63 1043.72 6999.00
  10  6999.00 1028.37 1028.35 1029.11 1030.66 1032.66 1034.31 1036.18 1039.99 1044.38
  11  6999.00 1019.63 1021.15 1024.46 1026.55 1028.77 1030.45 1032.79 1036.27 6999.00
  12  1001.18 1008.84 1014.04 1018.81 1022.46 1025.75 1028.22 1031.09 1034.86 6999.00
  13   994.96 1000.22 1006.97 1013.13 1018.94 1024.47 1029.25 1034.28 1036.43 6999.00
  14  6999.00 1005.82 1011.53 1016.25 1021.28 1026.08 1030.38 1035.32 1039.50 6999.00
  15  6999.00 6999.00 1018.84 1021.83 1025.56 1028.55 6999.00 6999.00 6999.00 6999.00

 HEAD WILL BE SAVED ON UNIT   58 AT END OF TIME STEP  15, STRESS PERIOD    6
1
  VOLUMETRIC BUDGET FOR ENTIRE MODEL AT END OF TIME STEP 15 IN STRESS PERIOD   6
  ------------------------------------------------------------------------------

     CUMULATIVE VOLUMES      L**3       RATES FOR THIS TIME STEP      L**3/T
     ------------------                 ------------------------

           IN:                                      IN:
           ---                                      ---
             STORAGE =    51370324.0000               STORAGE =           0.4081
       CONSTANT HEAD =           0.0000         CONSTANT HEAD =           0.0000
               WELLS =           0.0000                 WELLS =           0.0000
     HEAD DEP BOUNDS =     3293290.5000       HEAD DEP BOUNDS =           0.2090
        UZF RECHARGE =   214668000.0000          UZF RECHARGE =          18.8508
               GW ET =           0.0000                 GW ET =           0.0000
     SURFACE LEAKAGE =           0.0000       SURFACE LEAKAGE =           0.0000
      STREAM LEAKAGE =   681071232.0000        STREAM LEAKAGE =          43.1296

            TOTAL IN =   950402816.0000              TOTAL IN =          62.5975

          OUT:                                     OUT:
          ----                                     ----
             STORAGE =   234377520.0000               STORAGE =          30.2718
       CONSTANT HEAD =           0.0000         CONSTANT HEAD =           0.0000
               WELLS =   236519984.0000                 WELLS =           0.0000
     HEAD DEP BOUNDS =     4154079.5000       HEAD DEP BOUNDS =           0.2643
        UZF RECHARGE =           0.0000          UZF RECHARGE =           0.0000
               GW ET =   262445200.0000                 GW ET =          18.1596
     SURFACE LEAKAGE =           0.0000       SURFACE LEAKAGE =           0.0000
      STREAM LEAKAGE =   212765760.0000        STREAM LEAKAGE =          13.9311

           TOTAL OUT =   950262528.0000             TOTAL OUT =          62.6269

            IN - OUT =      140288.0000              IN - OUT =      -2.9377E-02

 PERCENT DISCREPANCY =           0.01     PERCENT DISCREPANCY =          -0.05






          TIME SUMMARY AT END OF TIME STEP  15 IN STRESS PERIOD    6
                    SECONDS     MINUTES      HOURS       DAYS        YEARS
                    -----------------------------------------------------------
   TIME STEP LENGTH 3.14103E+05  5235.0      87.251      3.6354     9.95332E-03
 STRESS PERIOD TIME 2.62800E+06  43800.      730.00      30.417     8.32763E-02
         TOTAL TIME 1.57680E+07 2.62800E+05  4380.0      182.50     0.49966    
1
1
                            STRESS PERIOD NO.    7, LENGTH =   2628000.    
                            -----------------------------------------------

                              NUMBER OF TIME STEPS =    15

                               MULTIPLIER FOR DELT =     1.100

                            INITIAL TIME STEP SIZE =   82713.07    

 WELL NO.  LAYER   ROW   COL   STRESS RATE         
 --------------------------------------------------
      1      1      6      4      -2.000    
      2      1      6      5      -2.000    
      3      1      7      4      -2.000    
      4      1      7      5      -2.000    
      5      1      8      4      -2.000    
      6      1      8      5      -2.000    
      7      1      9      4      -2.000    
      8      1      9      5      -2.000    
      9      1     10      4      -2.000    
     10      1     10      5      -2.000    

     10 WELLS

 REUSING NON-PARAMETER GHB CELLS FROM LAST STRESS PERIOD

      2 GHB CELLS

 REUSING STREAM SEGMENT DATA FROM LAST STRESS PERIOD



            AREAL INFILTRATION RATE
 READING ON UNIT   19 WITH FORMAT: (10F4.0)            

            1           2           3           4           5           6           7           8           9          10
 ........................................................................................................................
   1   3.0000E-09  6.0000E-09   0.000       0.000       0.000       0.000       0.000       0.000       0.000       0.000    
   2   6.0000E-09  3.0000E-09  6.0000E-09   0.000       0.000      2.4000E-08  2.4000E-08  1.5000E-08   0.000       0.000    
   3    0.000      1.5000E-08  3.0000E-09  3.0000E-09  2.4000E-08  2.4000E-08  1.5000E-08  1.5000E-08   0.000       0.000    
   4   2.4000E-08  1.5000E-08  3.0000E-09  3.0000E-09  3.0000E-09  3.0000E-09  3.0000E-09  3.0000E-09  6.0000E-09   0.000    
   5   2.4000E-08  1.5000E-08  3.0000E-09  3.0000E-09  3.0000E-09  3.0000E-09  3.0000E-09  3.0000E-09  3.0000E-09  3.0000E-09
   6   2.4000E-08  1.5000E-08  1.5000E-08  6.0000E-09  6.0000E-09  3.0000E-09  3.0000E-09  3.0000E-09  3.0000E-09  1.5000E-08
   7   2.4000E-08  1.5000E-08  1.5000E-08  6.0000E-09  6.0000E-09  3.0000E-09  3.0000E-09  6.0000E-09  6.0000E-09   0.000    
   8    0.000      1.5000E-08  1.5000E-08  6.0000E-09  6.0000E-09  3.0000E-09  3.0000E-09  6.0000E-09  1.5000E-08   0.000    
   9    0.000      1.5000E-08  1.5000E-08  6.0000E-09  6.0000E-09  3.0000E-09  3.0000E-09  6.0000E-09  1.5000E-08   0.000    
  10    0.000      1.5000E-08  1.5000E-08  6.0000E-09  6.0000E-09  3.0000E-09  3.0000E-09  6.0000E-09  1.5000E-08  2.4000E-08
  11    0.000      3.0000E-09  3.0000E-09  3.0000E-09  3.0000E-09  3.0000E-09  3.0000E-09  6.0000E-09  1.5000E-08   0.000    
  12   3.0000E-09  3.0000E-09  3.0000E-09  3.0000E-09  3.0000E-09  3.0000E-09  3.0000E-09  3.0000E-09  6.0000E-09   0.000    
  13   3.0000E-09  3.0000E-09  6.0000E-09  6.0000E-09  6.0000E-09  6.0000E-09  6.0000E-09  3.0000E-09  3.0000E-09   0.000    
  14    0.000      6.0000E-09  1.5000E-08  1.5000E-08  1.5000E-08  1.5000E-08  1.5000E-08  6.0000E-09  3.0000E-09   0.000    
  15    0.000       0.000      2.4000E-08  2.4000E-08  2.4000E-08  2.4000E-08   0.000       0.000       0.000       0.000    

USING ET RATE FROM PREVIOUS STRESS PERIOD. CURRENT PERIOD IS:       7

 USING ET EXTINCTION DEPTH FROM PREVIOUS STRESS PERIOD. CURRENT PERIOD IS:       7

 USING EXTINCTION WATER CONTENT FROM PREVIOUS STRESS PERIOD. CURRENT PERIOD IS:       7
 
 SOLVING FOR HEAD 

    10 ITERATIONS FOR TIME STEP   1 IN STRESS PERIOD    7

 MAXIMUM HEAD CHANGE FOR EACH ITERATION:

    HEAD CHANGE   HEAD CHANGE   HEAD CHANGE   HEAD CHANGE   HEAD CHANGE
  LAYER,ROW,COL LAYER,ROW,COL LAYER,ROW,COL LAYER,ROW,COL LAYER,ROW,COL
 ----------------------------------------------------------------------
     0.3348E-01    0.1864E-01    0.1037E-01    0.5783E-02    0.3217E-02
  (  1,  2,  7) (  1,  2,  7) (  1,  2,  7) (  1,  2,  7) (  1,  2,  7)
     0.1776E-02    0.9731E-03    0.5551E-03    0.3169E-03    0.1666E-03
  (  1,  2,  7) (  1,  2,  7) (  1,  2,  7) (  1,  2,  7) (  1,  2,  7)


 NO OUTPUT CONTROL FOR STRESS PERIOD    7   TIME STEP   1
 
 SOLVING FOR HEAD 
    10 ITERATIONS FOR TIME STEP   2 IN STRESS PERIOD    7

 MAXIMUM HEAD CHANGE FOR EACH ITERATION:

    HEAD CHANGE   HEAD CHANGE   HEAD CHANGE   HEAD CHANGE   HEAD CHANGE
  LAYER,ROW,COL LAYER,ROW,COL LAYER,ROW,COL LAYER,ROW,COL LAYER,ROW,COL
 ----------------------------------------------------------------------
     0.3814E-01    0.2110E-01    0.1170E-01    0.6472E-02    0.3559E-02
  (  1,  2,  7) (  1,  2,  7) (  1,  2,  7) (  1,  2,  7) (  1,  2,  7)
     0.2014E-02    0.1082E-02    0.6126E-03    0.3489E-03    0.1830E-03
  (  1,  2,  7) (  1,  2,  7) (  1,  2,  7) (  1,  2,  7) (  1,  2,  7)


 NO OUTPUT CONTROL FOR STRESS PERIOD    7   TIME STEP   2
 
 SOLVING FOR HEAD 
    10 ITERATIONS FOR TIME STEP   3 IN STRESS PERIOD    7

 MAXIMUM HEAD CHANGE FOR EACH ITERATION:

    HEAD CHANGE   HEAD CHANGE   HEAD CHANGE   HEAD CHANGE   HEAD CHANGE
  LAYER,ROW,COL LAYER,ROW,COL LAYER,ROW,COL LAYER,ROW,COL LAYER,ROW,COL
 ----------------------------------------------------------------------
     0.4104E-01    0.2259E-01    0.1242E-01    0.6843E-02    0.3734E-02
  (  1,  2,  7) (  1,  2,  7) (  1,  2,  7) (  1,  2,  7) (  1,  2,  7)
     0.2054E-02    0.1158E-02    0.6049E-03    0.3701E-03    0.1985E-03
  (  1,  2,  7) (  1,  2,  7) (  1,  2,  7) (  1,  2,  7) (  1,  2,  7)


 NO OUTPUT CONTROL FOR STRESS PERIOD    7   TIME STEP   3
 
 SOLVING FOR HEAD 
    11 ITERATIONS FOR TIME STEP   4 IN STRESS PERIOD    7

 MAXIMUM HEAD CHANGE FOR EACH ITERATION:

    HEAD CHANGE   HEAD CHANGE   HEAD CHANGE   HEAD CHANGE   HEAD CHANGE
  LAYER,ROW,COL LAYER,ROW,COL LAYER,ROW,COL LAYER,ROW,COL LAYER,ROW,COL
 ----------------------------------------------------------------------
     0.4314E-01    0.2342E-01    0.1276E-01    0.6933E-02    0.3714E-02
  (  1,  2,  7) (  1,  2,  7) (  1,  2,  7) (  1,  2,  7) (  1,  2,  7)
     0.2043E-02    0.1093E-02    0.6292E-03    0.3310E-03    0.2031E-03
  (  1,  2,  7) (  1,  2,  7) (  1,  2,  7) (  1,  2,  7) (  1,  2,  7)
     0.1091E-03
  (  1,  2,  7)


 NO OUTPUT CONTROL FOR STRESS PERIOD    7   TIME STEP   4
 
 SOLVING FOR HEAD 
    11 ITERATIONS FOR TIME STEP   5 IN STRESS PERIOD    7

 MAXIMUM HEAD CHANGE FOR EACH ITERATION:

    HEAD CHANGE   HEAD CHANGE   HEAD CHANGE   HEAD CHANGE   HEAD CHANGE
  LAYER,ROW,COL LAYER,ROW,COL LAYER,ROW,COL LAYER,ROW,COL LAYER,ROW,COL
 ----------------------------------------------------------------------
     0.4383E-01    0.2367E-01    0.1286E-01    0.6938E-02    0.3721E-02
  (  1,  2,  7) (  1,  2,  7) (  1,  2,  7) (  1,  2,  7) (  1,  2,  7)
     0.2023E-02    0.1082E-02    0.5927E-03    0.3441E-03    0.2192E-03
  (  1,  2,  7) (  1,  2,  7) (  1,  2,  7) (  1,  2,  7) (  1,  2,  7)
     0.1191E-03
  (  1,  2,  7)


 OUTPUT CONTROL FOR STRESS PERIOD    7   TIME STEP   5
    PRINT BUDGET
    SAVE BUDGET

            WELLS   PERIOD    7   STEP   5
 WELL      1   LAYER   1   ROW     6   COL     4   RATE    -2.00000    
 WELL      2   LAYER   1   ROW     6   COL     5   RATE    -2.00000    
 WELL      3   LAYER   1   ROW     7   COL     4   RATE    -2.00000    
 WELL      4   LAYER   1   ROW     7   COL     5   RATE    -2.00000    
 WELL      5   LAYER   1   ROW     8   COL     4   RATE    -2.00000    
 WELL      6   LAYER   1   ROW     8   COL     5   RATE    -2.00000    
 WELL      7   LAYER   1   ROW     9   COL     4   RATE    -2.00000    
 WELL      8   LAYER   1   ROW     9   COL     5   RATE    -2.00000    
 WELL      9   LAYER   1   ROW    10   COL     4   RATE    -2.00000    
 WELL     10   LAYER   1   ROW    10   COL     5   RATE    -2.00000    

  HEAD DEP BOUNDS   PERIOD    7   STEP   5
 BOUNDARY      1   LAYER   1   ROW    13   COL     1   RATE   -0.264081    
 BOUNDARY      2   LAYER   1   ROW    14   COL     9   RATE    0.208981    
 UBDSV3 SAVING "           GW ET" ON UNIT  61 AT TIME STEP  5, STRESS PERIOD   7
 UBDSV3 SAVING "    UZF RECHARGE" ON UNIT  61 AT TIME STEP  5, STRESS PERIOD   7
 UBDSV3 SAVING " SURFACE LEAKAGE" ON UNIT  61 AT TIME STEP  5, STRESS PERIOD   7


UNSATURATED ZONE PACKAGE VOLUMETRIC BUDGET FOR  TIME STEP    5 STRESS PERIOD    7
  ------------------------------------------------------------------------------



     CUMULATIVE VOLUMES      L**3       RATES FOR THIS TIME STEP      L**3/T
     ------------------                 ------------------------

           IN:                                      IN:
           ---                                      ---
        INFILTRATION =  1215543007.0791          INFILTRATION =          25.4250

          OUT:                                     OUT:
          ----                                     ----
              UZF ET =  1291832612.6754                UZF ET =          68.3458
        UZF RECHARGE =   223422804.9978          UZF RECHARGE =          16.9796

            IN - OUT =  -299712410.5941              IN - OUT =         -59.9004

          STORAGE:                                 STORAGE:
          --------                                 --------
      STORAGE CHANGE =  -299526723.5972        STORAGE CHANGE =         -59.8955

 PERCENT DISCREPANCY IS DIFFERENCE BETWEEN IN-OUT MINUS CHANGE IN STORAGE
 DIVIDED BY THE AVERAGE OF IN AND OUT TIMES 100

 PERCENT DISCREPANCY =           0.00     PERCENT DISCREPANCY =          -0.01









 STREAM LISTING     PERIOD      7   STEP        5

 LAYER ROW COL. STREAM  RCH.  FLOW INTO     FLOW TO   FLOW OUT OF   OVRLND.     DIRECT     STREAM       STREAM     STREAM     STREAM   STREAMBED  STREAMBED
                SEG.NO.  NO.  STRM. RCH.    AQUIFER    STRM. RCH.    RUNOFF     PRECIP       ET          HEAD       DEPTH      WIDTH   CONDCTNC.   GRADIENT

   1    1    1     1     1    2.5000E+01  1.0352E+00   2.3965E+01  0.000E+00  0.000E+00  0.000E+00  1.09422E+03  1.172E+00  1.296E+01  5.832E-01  5.917E-01
   1    2    2     1     2    2.3965E+01  3.0628E+00   2.0902E+01  0.000E+00  0.000E+00  0.000E+00  1.08920E+03  1.141E+00  1.254E+01  8.775E-01  1.163E+00
   1    3    3     1     3    2.0902E+01  2.9050E+00   1.7997E+01  0.000E+00  0.000E+00  0.000E+00  1.08351E+03  1.091E+00  1.183E+01  7.101E-01  1.364E+00
   1    3    4     1     4    1.7997E+01  2.4676E+00   1.5529E+01  0.000E+00  0.000E+00  0.000E+00  1.07845E+03  1.045E+00  1.099E+01  6.100E-01  1.348E+00
   1    4    5     2     1    5.5295E+00  2.6629E+00   2.8666E+00  0.000E+00  0.000E+00  0.000E+00  1.07235E+03  4.140E-01  1.200E+01  7.800E-01  1.138E+00
   1    5    6     2     2    2.8666E+00  1.9539E+00   9.1272E-01  0.000E+00  0.000E+00  0.000E+00  1.06677E+03  2.564E-01  1.200E+01  6.000E-01  1.085E+00
   1    6    6     2     3    9.1272E-01  9.1272E-01   0.0000E+00  0.000E+00  0.000E+00  0.000E+00  1.06180E+03  9.321E-03  1.200E+01  6.000E-01  1.003E+00
   1    7    6     2     4    0.0000E+00  0.0000E+00   0.0000E+00  0.000E+00  0.000E+00  0.000E+00  1.05708E+03  0.000E+00  1.200E+01  6.000E-01  1.000E+00
   1    8    6     2     5    0.0000E+00  0.0000E+00   0.0000E+00  0.000E+00  0.000E+00  0.000E+00  1.05236E+03  0.000E+00  1.200E+01  6.000E-01  1.000E+00
   1    3    5     3     1    1.0000E+01  2.4600E+00   7.5400E+00  0.000E+00  0.000E+00  0.000E+00  1.07555E+03  1.909E+00  9.636E+00  7.227E-01  1.702E+00
   1    3    6     3     2    7.5400E+00  1.1885E+00   6.3515E+00  0.000E+00  0.000E+00  0.000E+00  1.07264E+03  1.727E+00  8.909E+00  6.682E-01  8.894E-01
   1    3    7     3     3    6.3515E+00  4.9988E-01   5.8516E+00  0.000E+00  0.000E+00  0.000E+00  1.06987E+03  1.555E+00  8.218E+00  5.547E-01  4.506E-01
   1    4    8     3     4    5.8516E+00  1.5133E+00   4.3383E+00  0.000E+00  0.000E+00  0.000E+00  1.06682E+03  1.364E+00  7.455E+00  6.709E-01  1.128E+00
   1    5    8     3     5    4.3383E+00  1.5790E+00   2.7593E+00  0.000E+00  0.000E+00  0.000E+00  1.06362E+03  1.164E+00  6.655E+00  4.991E-01  1.582E+00
   1    6    8     3     6    2.7593E+00  5.5980E-01   2.1995E+00  0.000E+00  0.000E+00  0.000E+00  1.06158E+03  1.036E+00  6.145E+00  1.844E-01  1.518E+00
   1    5   10     4     1    1.0000E+01  9.0525E-01   9.0947E+00  0.000E+00  0.000E+00  0.000E+00  1.07835E+03  6.210E-01  1.000E+01  2.500E-01  1.207E+00
   1    5    9     4     2    9.0947E+00  1.7835E+00   7.3113E+00  0.000E+00  0.000E+00  0.000E+00  1.07148E+03  5.670E-01  1.000E+01  5.000E-01  1.189E+00
   1    6    8     4     3    7.3113E+00  1.2257E+00   6.0855E+00  0.000E+00  0.000E+00  0.000E+00  1.06368E+03  5.021E-01  1.000E+01  3.500E-01  1.167E+00
   1    6    8     5     1    8.2851E+00  1.0718E+00   7.2132E+00  0.000E+00  0.000E+00  0.000E+00  1.05861E+03  6.143E-01  1.298E+01  5.193E-01  6.880E-01
   1    7    7     5     2    7.2132E+00  2.0260E+00   5.1872E+00  0.000E+00  0.000E+00  0.000E+00  1.05407E+03  5.682E-01  1.136E+01  5.678E-01  1.189E+00
   1    8    7     5     3    5.1872E+00  1.1675E+00   4.0197E+00  0.000E+00  0.000E+00  0.000E+00  1.04976E+03  5.119E-01  9.498E+00  3.324E-01  1.171E+00
   1    8    6     5     4    4.0197E+00  7.1859E-01   3.3011E+00  0.000E+00  0.000E+00  0.000E+00  1.04672E+03  4.725E-01  8.278E+00  2.069E-01  1.157E+00
   1    9    6     6     1    3.3011E+00  1.9757E+00   1.3254E+00  0.000E+00  0.000E+00  0.000E+00  1.04302E+03  2.928E-01  1.200E+01  6.000E-01  1.098E+00
   1   10    7     6     2    1.3254E+00  1.3254E+00   0.0000E+00  0.000E+00  0.000E+00  0.000E+00  1.03823E+03  4.716E-02  1.200E+01  6.000E-01  1.016E+00
   1   11    7     6     3    0.0000E+00  0.0000E+00   0.0000E+00  0.000E+00  0.000E+00  0.000E+00  1.03364E+03  0.000E+00  1.200E+01  6.000E-01  1.000E+00
   1   12    7     6     4    0.0000E+00  0.0000E+00   0.0000E+00  0.000E+00  0.000E+00  0.000E+00  1.02909E+03  0.000E+00  1.200E+01  6.000E-01  2.904E-01
   1   13    7     6     5    0.0000E+00 -8.0100E-01   8.0100E-01  0.000E+00  0.000E+00  0.000E+00  1.02591E+03  0.000E+00  1.200E+01  2.400E-01 -1.112E+00
   1   14    9     7     1    1.5000E+02  2.0468E+00   1.4795E+02  0.000E+00  0.000E+00  0.000E+00  1.03987E+03  2.286E+00  5.529E+01  5.592E+00  1.220E-01
   1   13    8     7     2    1.4795E+02  3.0041E+00   1.4495E+02  0.000E+00  0.000E+00  0.000E+00  1.03477E+03  2.272E+00  5.523E+01  6.144E+00  1.630E-01
   1   13    7     7     3    1.4495E+02  2.4022E+00   1.4255E+02  0.000E+00  0.000E+00  0.000E+00  1.02968E+03  2.258E+00  5.516E+01  5.578E+00  1.435E-01
   1   13    6     8     1    1.4335E+02  6.6512E-01   1.4268E+02  0.000E+00  0.000E+00  0.000E+00  1.02464E+03  2.767E+00  4.012E+01  4.088E+00  5.423E-02
   1   13    5     8     2    1.4268E+02 -2.2369E+00   1.4492E+02  0.000E+00  0.000E+00  0.000E+00  1.01840E+03  2.773E+00  4.020E+01  4.097E+00 -1.820E-01
   1   13    4     8     3    1.4492E+02 -3.9742E+00   1.4889E+02  0.000E+00  0.000E+00  0.000E+00  1.01217E+03  2.795E+00  4.053E+01  4.130E+00 -3.208E-01
   1   13    3     8     4    1.4889E+02 -4.2714E+00   1.5317E+02  0.000E+00  0.000E+00  0.000E+00  1.00595E+03  2.824E+00  4.095E+01  4.173E+00 -3.412E-01
   1   13    2     8     5    1.5317E+02 -2.0818E+00   1.5525E+02  0.000E+00  0.000E+00  0.000E+00  9.99721E+02  2.846E+00  4.127E+01  4.206E+00 -1.650E-01
   1   13    1     8     6    1.5525E+02 -5.5486E-01   1.5580E+02  0.000E+00  0.000E+00  0.000E+00  9.94730E+02  2.855E+00  4.140E+01  2.531E+00 -7.306E-02



1
  VOLUMETRIC BUDGET FOR ENTIRE MODEL AT END OF TIME STEP  5 IN STRESS PERIOD   7
  ------------------------------------------------------------------------------

     CUMULATIVE VOLUMES      L**3       RATES FOR THIS TIME STEP      L**3/T
     ------------------                 ------------------------

           IN:                                      IN:
           ---                                      ---
             STORAGE =    54543868.0000               STORAGE =           5.9625
       CONSTANT HEAD =           0.0000         CONSTANT HEAD =           0.0000
               WELLS =           0.0000                 WELLS =           0.0000
     HEAD DEP BOUNDS =     3398821.5000       HEAD DEP BOUNDS =           0.2090
        UZF RECHARGE =   223422880.0000          UZF RECHARGE =          16.9796
               GW ET =           0.0000                 GW ET =           0.0000
     SURFACE LEAKAGE =           0.0000       SURFACE LEAKAGE =           0.0000
      STREAM LEAKAGE =   702853056.0000        STREAM LEAKAGE =          43.1182

            TOTAL IN =   984218624.0000              TOTAL IN =          66.2693

          OUT:                                     OUT:
          ----                                     ----
             STORAGE =   241732256.0000               STORAGE =          13.8842
       CONSTANT HEAD =           0.0000         CONSTANT HEAD =           0.0000
               WELLS =   246619408.0000                 WELLS =          20.0000
     HEAD DEP BOUNDS =     4287476.5000       HEAD DEP BOUNDS =           0.2641
        UZF RECHARGE =           0.0000          UZF RECHARGE =           0.0000
               GW ET =   271618720.0000                 GW ET =          18.1708
     SURFACE LEAKAGE =           0.0000       SURFACE LEAKAGE =           0.0000
      STREAM LEAKAGE =   219800656.0000        STREAM LEAKAGE =          13.9202

           TOTAL OUT =   984058560.0000             TOTAL OUT =          66.2392

            IN - OUT =      160064.0000              IN - OUT =       3.0067E-02

 PERCENT DISCREPANCY =           0.02     PERCENT DISCREPANCY =           0.05






          TIME SUMMARY AT END OF TIME STEP   5 IN STRESS PERIOD    7
                    SECONDS     MINUTES      HOURS       DAYS        YEARS
                    -----------------------------------------------------------
   TIME STEP LENGTH 1.21100E+05  2018.3      33.639      1.4016     3.83743E-03
 STRESS PERIOD TIME 5.04972E+05  8416.2      140.27      5.8446     1.60016E-02
         TOTAL TIME 1.62730E+07 2.71216E+05  4520.3      188.34     0.51566    
1
 
 SOLVING FOR HEAD 
    10 ITERATIONS FOR TIME STEP   6 IN STRESS PERIOD    7

 MAXIMUM HEAD CHANGE FOR EACH ITERATION:

    HEAD CHANGE   HEAD CHANGE   HEAD CHANGE   HEAD CHANGE   HEAD CHANGE
  LAYER,ROW,COL LAYER,ROW,COL LAYER,ROW,COL LAYER,ROW,COL LAYER,ROW,COL
 ----------------------------------------------------------------------
     0.4633E-01    0.2499E-01    0.1344E-01    0.7238E-02    0.3929E-02
  (  1,  2,  7) (  1,  2,  7) (  1,  2,  7) (  1,  2,  7) (  1,  2,  7)
     0.2110E-02    0.1084E-02    0.6302E-03    0.2918E-03    0.1411E-03
  (  1,  2,  7) (  1,  2,  7) (  1,  2,  7) (  1,  2,  7) (  1,  2,  7)


 NO OUTPUT CONTROL FOR STRESS PERIOD    7   TIME STEP   6
 
 SOLVING FOR HEAD 
    10 ITERATIONS FOR TIME STEP   7 IN STRESS PERIOD    7

 MAXIMUM HEAD CHANGE FOR EACH ITERATION:

    HEAD CHANGE   HEAD CHANGE   HEAD CHANGE   HEAD CHANGE   HEAD CHANGE
  LAYER,ROW,COL LAYER,ROW,COL LAYER,ROW,COL LAYER,ROW,COL LAYER,ROW,COL
 ----------------------------------------------------------------------
     0.4756E-01    0.2525E-01    0.1342E-01    0.7142E-02    0.3793E-02
  (  1,  2,  7) (  1,  2,  7) (  1,  2,  7) (  1,  2,  7) (  1,  2,  7)
     0.1942E-02    0.1025E-02    0.5688E-03    0.2960E-03    0.1501E-03
  (  1,  2,  7) (  1,  2,  7) (  1,  2,  7) (  1,  2,  7) (  1,  2,  7)


 NO OUTPUT CONTROL FOR STRESS PERIOD    7   TIME STEP   7
 
 SOLVING FOR HEAD 
    10 ITERATIONS FOR TIME STEP   8 IN STRESS PERIOD    7

 MAXIMUM HEAD CHANGE FOR EACH ITERATION:

    HEAD CHANGE   HEAD CHANGE   HEAD CHANGE   HEAD CHANGE   HEAD CHANGE
  LAYER,ROW,COL LAYER,ROW,COL LAYER,ROW,COL LAYER,ROW,COL LAYER,ROW,COL
 ----------------------------------------------------------------------
     0.4822E-01    0.2545E-01    0.1349E-01    0.7098E-02    0.3719E-02
  (  1,  2,  7) (  1,  2,  7) (  1,  2,  7) (  1,  2,  7) (  1,  2,  7)
     0.1944E-02    0.1088E-02    0.5176E-03    0.3031E-03    0.1606E-03
  (  1,  2,  7) (  1,  2,  7) (  1,  2,  7) (  1,  2,  7) (  1,  2,  7)


 NO OUTPUT CONTROL FOR STRESS PERIOD    7   TIME STEP   8
 
 SOLVING FOR HEAD 
    10 ITERATIONS FOR TIME STEP   9 IN STRESS PERIOD    7

 MAXIMUM HEAD CHANGE FOR EACH ITERATION:

    HEAD CHANGE   HEAD CHANGE   HEAD CHANGE   HEAD CHANGE   HEAD CHANGE
  LAYER,ROW,COL LAYER,ROW,COL LAYER,ROW,COL LAYER,ROW,COL LAYER,ROW,COL
 ----------------------------------------------------------------------
     0.5025E-01    0.2652E-01    0.1398E-01    0.7354E-02    0.3832E-02
  (  1,  2,  7) (  1,  2,  7) (  1,  2,  7) (  1,  2,  7) (  1,  2,  7)
     0.2029E-02    0.1065E-02    0.5423E-03    0.2733E-03    0.1643E-03
  (  1,  2,  7) (  1,  2,  7) (  1,  2,  7) (  1,  2,  7) (  1,  2,  7)


 NO OUTPUT CONTROL FOR STRESS PERIOD    7   TIME STEP   9
 
 SOLVING FOR HEAD 
    10 ITERATIONS FOR TIME STEP  10 IN STRESS PERIOD    7

 MAXIMUM HEAD CHANGE FOR EACH ITERATION:

    HEAD CHANGE   HEAD CHANGE   HEAD CHANGE   HEAD CHANGE   HEAD CHANGE
  LAYER,ROW,COL LAYER,ROW,COL LAYER,ROW,COL LAYER,ROW,COL LAYER,ROW,COL
 ----------------------------------------------------------------------
     0.4926E-01    0.2541E-01    0.1311E-01    0.6784E-02    0.3468E-02
  (  1,  2,  7) (  1,  2,  7) (  1,  2,  7) (  1,  2,  7) (  1,  2,  7)
     0.1780E-02    0.9592E-03    0.4935E-03    0.2195E-03    0.1644E-03
  (  1,  2,  7) (  1,  2,  7) (  1,  2,  7) (  1,  2,  7) (  1,  2,  7)


 OUTPUT CONTROL FOR STRESS PERIOD    7   TIME STEP  10
    PRINT BUDGET
    SAVE BUDGET

            WELLS   PERIOD    7   STEP  10
 WELL      1   LAYER   1   ROW     6   COL     4   RATE    -2.00000    
 WELL      2   LAYER   1   ROW     6   COL     5   RATE    -2.00000    
 WELL      3   LAYER   1   ROW     7   COL     4   RATE    -2.00000    
 WELL      4   LAYER   1   ROW     7   COL     5   RATE    -2.00000    
 WELL      5   LAYER   1   ROW     8   COL     4   RATE    -2.00000    
 WELL      6   LAYER   1   ROW     8   COL     5   RATE    -2.00000    
 WELL      7   LAYER   1   ROW     9   COL     4   RATE    -2.00000    
 WELL      8   LAYER   1   ROW     9   COL     5   RATE    -2.00000    
 WELL      9   LAYER   1   ROW    10   COL     4   RATE    -2.00000    
 WELL     10   LAYER   1   ROW    10   COL     5   RATE    -2.00000    

  HEAD DEP BOUNDS   PERIOD    7   STEP  10
 BOUNDARY      1   LAYER   1   ROW    13   COL     1   RATE   -0.263789    
 BOUNDARY      2   LAYER   1   ROW    14   COL     9   RATE    0.208968    
 UBDSV3 SAVING "           GW ET" ON UNIT  61 AT TIME STEP 10, STRESS PERIOD   7
 UBDSV3 SAVING "    UZF RECHARGE" ON UNIT  61 AT TIME STEP 10, STRESS PERIOD   7
 UBDSV3 SAVING " SURFACE LEAKAGE" ON UNIT  61 AT TIME STEP 10, STRESS PERIOD   7


UNSATURATED ZONE PACKAGE VOLUMETRIC BUDGET FOR  TIME STEP   10 STRESS PERIOD    7
  ------------------------------------------------------------------------------



     CUMULATIVE VOLUMES      L**3       RATES FOR THIS TIME STEP      L**3/T
     ------------------                 ------------------------

           IN:                                      IN:
           ---                                      ---
        INFILTRATION =  1236220188.6221          INFILTRATION =          25.4250

          OUT:                                     OUT:
          ----                                     ----
              UZF ET =  1347791774.6432                UZF ET =          69.0800
        UZF RECHARGE =   235345894.9615          UZF RECHARGE =          12.4881

            IN - OUT =  -346917480.9826              IN - OUT =         -56.1431

          STORAGE:                                 STORAGE:
          --------                                 --------
      STORAGE CHANGE =  -346728389.9014        STORAGE CHANGE =         -56.1422

 PERCENT DISCREPANCY IS DIFFERENCE BETWEEN IN-OUT MINUS CHANGE IN STORAGE
 DIVIDED BY THE AVERAGE OF IN AND OUT TIMES 100

 PERCENT DISCREPANCY =           0.00     PERCENT DISCREPANCY =           0.00









 STREAM LISTING     PERIOD      7   STEP       10

 LAYER ROW COL. STREAM  RCH.  FLOW INTO     FLOW TO   FLOW OUT OF   OVRLND.     DIRECT     STREAM       STREAM     STREAM     STREAM   STREAMBED  STREAMBED
                SEG.NO.  NO.  STRM. RCH.    AQUIFER    STRM. RCH.    RUNOFF     PRECIP       ET          HEAD       DEPTH      WIDTH   CONDCTNC.   GRADIENT

   1    1    1     1     1    2.5000E+01  1.0393E+00   2.3961E+01  0.000E+00  0.000E+00  0.000E+00  1.09422E+03  1.172E+00  1.296E+01  5.831E-01  5.941E-01
   1    2    2     1     2    2.3961E+01  3.0645E+00   2.0896E+01  0.000E+00  0.000E+00  0.000E+00  1.08920E+03  1.140E+00  1.253E+01  8.774E-01  1.164E+00
   1    3    3     1     3    2.0896E+01  2.9045E+00   1.7992E+01  0.000E+00  0.000E+00  0.000E+00  1.08351E+03  1.091E+00  1.183E+01  7.100E-01  1.364E+00
   1    3    4     1     4    1.7992E+01  2.4671E+00   1.5525E+01  0.000E+00  0.000E+00  0.000E+00  1.07845E+03  1.045E+00  1.099E+01  6.099E-01  1.348E+00
   1    4    5     2     1    5.5245E+00  2.6627E+00   2.8619E+00  0.000E+00  0.000E+00  0.000E+00  1.07235E+03  4.137E-01  1.200E+01  7.800E-01  1.138E+00
   1    5    6     2     2    2.8619E+00  1.9536E+00   9.0824E-01  0.000E+00  0.000E+00  0.000E+00  1.06677E+03  2.561E-01  1.200E+01  6.000E-01  1.085E+00
   1    6    6     2     3    9.0824E-01  9.0824E-01   0.0000E+00  0.000E+00  0.000E+00  0.000E+00  1.06183E+03  3.717E-02  1.200E+01  6.000E-01  1.012E+00
   1    7    6     2     4    0.0000E+00  0.0000E+00   0.0000E+00  0.000E+00  0.000E+00  0.000E+00  1.05708E+03  0.000E+00  1.200E+01  6.000E-01  1.000E+00
   1    8    6     2     5    0.0000E+00  0.0000E+00   0.0000E+00  0.000E+00  0.000E+00  0.000E+00  1.05236E+03  0.000E+00  1.200E+01  6.000E-01  1.000E+00
   1    3    5     3     1    1.0000E+01  2.4408E+00   7.5592E+00  0.000E+00  0.000E+00  0.000E+00  1.07555E+03  1.909E+00  9.636E+00  7.227E-01  1.689E+00
   1    3    6     3     2    7.5592E+00  1.1996E+00   6.3595E+00  0.000E+00  0.000E+00  0.000E+00  1.07264E+03  1.727E+00  8.909E+00  6.682E-01  8.977E-01
   1    3    7     3     3    6.3595E+00  4.8665E-01   5.8729E+00  0.000E+00  0.000E+00  0.000E+00  1.06987E+03  1.555E+00  8.218E+00  5.547E-01  4.386E-01
   1    4    8     3     4    5.8729E+00  1.5078E+00   4.3651E+00  0.000E+00  0.000E+00  0.000E+00  1.06682E+03  1.364E+00  7.455E+00  6.709E-01  1.124E+00
   1    5    8     3     5    4.3651E+00  1.5790E+00   2.7861E+00  0.000E+00  0.000E+00  0.000E+00  1.06362E+03  1.164E+00  6.655E+00  4.991E-01  1.582E+00
   1    6    8     3     6    2.7861E+00  5.5980E-01   2.2263E+00  0.000E+00  0.000E+00  0.000E+00  1.06158E+03  1.036E+00  6.145E+00  1.844E-01  1.518E+00
   1    5   10     4     1    1.0000E+01  9.0525E-01   9.0947E+00  0.000E+00  0.000E+00  0.000E+00  1.07835E+03  6.210E-01  1.000E+01  2.500E-01  1.207E+00
   1    5    9     4     2    9.0947E+00  1.7835E+00   7.3113E+00  0.000E+00  0.000E+00  0.000E+00  1.07148E+03  5.670E-01  1.000E+01  5.000E-01  1.189E+00
   1    6    8     4     3    7.3113E+00  1.2257E+00   6.0855E+00  0.000E+00  0.000E+00  0.000E+00  1.06368E+03  5.021E-01  1.000E+01  3.500E-01  1.167E+00
   1    6    8     5     1    8.3119E+00  1.0656E+00   7.2463E+00  0.000E+00  0.000E+00  0.000E+00  1.05862E+03  6.151E-01  1.301E+01  5.205E-01  6.824E-01
   1    7    7     5     2    7.2463E+00  2.0324E+00   5.2139E+00  0.000E+00  0.000E+00  0.000E+00  1.05407E+03  5.691E-01  1.139E+01  5.694E-01  1.190E+00
   1    8    7     5     3    5.2139E+00  1.1716E+00   4.0423E+00  0.000E+00  0.000E+00  0.000E+00  1.04976E+03  5.129E-01  9.529E+00  3.335E-01  1.171E+00
   1    8    6     5     4    4.0423E+00  7.2129E-01   3.3210E+00  0.000E+00  0.000E+00  0.000E+00  1.04672E+03  4.734E-01  8.306E+00  2.077E-01  1.158E+00
   1    9    6     6     1    3.3210E+00  1.9765E+00   1.3445E+00  0.000E+00  0.000E+00  0.000E+00  1.04302E+03  2.942E-01  1.200E+01  6.000E-01  1.098E+00
   1   10    7     6     2    1.3445E+00  1.3445E+00   0.0000E+00  0.000E+00  0.000E+00  0.000E+00  1.03823E+03  4.757E-02  1.200E+01  6.000E-01  1.016E+00
   1   11    7     6     3    0.0000E+00  0.0000E+00   0.0000E+00  0.000E+00  0.000E+00  0.000E+00  1.03364E+03  0.000E+00  1.200E+01  6.000E-01  1.000E+00
   1   12    7     6     4    0.0000E+00  0.0000E+00   0.0000E+00  0.000E+00  0.000E+00  0.000E+00  1.02909E+03  0.000E+00  1.200E+01  6.000E-01  2.888E-01
   1   13    7     6     5    0.0000E+00 -8.0570E-01   8.0570E-01  0.000E+00  0.000E+00  0.000E+00  1.02591E+03  0.000E+00  1.200E+01  2.400E-01 -1.119E+00
   1   14    9     7     1    1.5000E+02  2.0448E+00   1.4796E+02  0.000E+00  0.000E+00  0.000E+00  1.03987E+03  2.286E+00  5.529E+01  5.592E+00  1.219E-01
   1   13    8     7     2    1.4796E+02  3.0000E+00   1.4496E+02  0.000E+00  0.000E+00  0.000E+00  1.03477E+03  2.272E+00  5.523E+01  6.144E+00  1.628E-01
   1   13    7     7     3    1.4496E+02  2.2948E+00   1.4266E+02  0.000E+00  0.000E+00  0.000E+00  1.02968E+03  2.258E+00  5.516E+01  5.578E+00  1.371E-01
   1   13    6     8     1    1.4347E+02  5.7955E-01   1.4289E+02  0.000E+00  0.000E+00  0.000E+00  1.02464E+03  2.768E+00  4.014E+01  4.090E+00  4.723E-02
   1   13    5     8     2    1.4289E+02 -2.1320E+00   1.4502E+02  0.000E+00  0.000E+00  0.000E+00  1.01840E+03  2.774E+00  4.022E+01  4.098E+00 -1.734E-01
   1   13    4     8     3    1.4502E+02 -3.8350E+00   1.4885E+02  0.000E+00  0.000E+00  0.000E+00  1.01217E+03  2.795E+00  4.053E+01  4.130E+00 -3.095E-01
   1   13    3     8     4    1.4885E+02 -4.1481E+00   1.5300E+02  0.000E+00  0.000E+00  0.000E+00  1.00595E+03  2.823E+00  4.094E+01  4.172E+00 -3.314E-01
   1   13    2     8     5    1.5300E+02 -2.0840E+00   1.5509E+02  0.000E+00  0.000E+00  0.000E+00  9.99720E+02  2.845E+00  4.125E+01  4.204E+00 -1.652E-01
   1   13    1     8     6    1.5509E+02 -5.3814E-01   1.5562E+02  0.000E+00  0.000E+00  0.000E+00  9.94729E+02  2.854E+00  4.138E+01  2.530E+00 -7.089E-02



1
  VOLUMETRIC BUDGET FOR ENTIRE MODEL AT END OF TIME STEP 10 IN STRESS PERIOD   7
  ------------------------------------------------------------------------------

     CUMULATIVE VOLUMES      L**3       RATES FOR THIS TIME STEP      L**3/T
     ------------------                 ------------------------

           IN:                                      IN:
           ---                                      ---
             STORAGE =    59392984.0000               STORAGE =           6.4412
       CONSTANT HEAD =           0.0000         CONSTANT HEAD =           0.0000
               WELLS =           0.0000                 WELLS =           0.0000
     HEAD DEP BOUNDS =     3568771.2500       HEAD DEP BOUNDS =           0.2090
        UZF RECHARGE =   235345984.0000          UZF RECHARGE =          12.4881
               GW ET =           0.0000                 GW ET =           0.0000
     SURFACE LEAKAGE =           0.0000       SURFACE LEAKAGE =           0.0000
      STREAM LEAKAGE =   737827776.0000        STREAM LEAKAGE =          42.9192

            TOTAL IN =  1036135552.0000              TOTAL IN =          62.0575

          OUT:                                     OUT:
          ----                                     ----
             STORAGE =   251225840.0000               STORAGE =          10.0848
       CONSTANT HEAD =           0.0000         CONSTANT HEAD =           0.0000
               WELLS =   262884640.0000                 WELLS =          20.0000
     HEAD DEP BOUNDS =     4502093.5000       HEAD DEP BOUNDS =           0.2638
        UZF RECHARGE =           0.0000          UZF RECHARGE =           0.0000
               GW ET =   286394528.0000                 GW ET =          18.1546
     SURFACE LEAKAGE =           0.0000       SURFACE LEAKAGE =           0.0000
      STREAM LEAKAGE =   230945248.0000        STREAM LEAKAGE =          13.5429

           TOTAL OUT =  1035952384.0000             TOTAL OUT =          62.0461

            IN - OUT =      183168.0000              IN - OUT =       1.1398E-02

 PERCENT DISCREPANCY =           0.02     PERCENT DISCREPANCY =           0.02






          TIME SUMMARY AT END OF TIME STEP  10 IN STRESS PERIOD    7
                    SECONDS     MINUTES      HOURS       DAYS        YEARS
                    -----------------------------------------------------------
   TIME STEP LENGTH 1.95033E+05  3250.6      54.176      2.2573     6.18023E-03
 STRESS PERIOD TIME 1.31823E+06  21971.      366.18      15.257     4.17723E-02
         TOTAL TIME 1.70862E+07 2.84770E+05  4746.2      197.76     0.54143    
1
 
 SOLVING FOR HEAD 
    10 ITERATIONS FOR TIME STEP  11 IN STRESS PERIOD    7

 MAXIMUM HEAD CHANGE FOR EACH ITERATION:

    HEAD CHANGE   HEAD CHANGE   HEAD CHANGE   HEAD CHANGE   HEAD CHANGE
  LAYER,ROW,COL LAYER,ROW,COL LAYER,ROW,COL LAYER,ROW,COL LAYER,ROW,COL
 ----------------------------------------------------------------------
     0.4990E-01    0.2554E-01    0.1313E-01    0.6733E-02    0.3402E-02
  (  1,  2,  7) (  1,  2,  7) (  1,  2,  7) (  1,  2,  7) (  1,  2,  7)
     0.1741E-02    0.9445E-03    0.4539E-03    0.2235E-03    0.1111E-03
  (  1,  2,  7) (  1,  2,  7) (  1,  2,  7) (  1,  2,  7) (  1,  2,  7)


 NO OUTPUT CONTROL FOR STRESS PERIOD    7   TIME STEP  11
 
 SOLVING FOR HEAD 
    10 ITERATIONS FOR TIME STEP  12 IN STRESS PERIOD    7

 MAXIMUM HEAD CHANGE FOR EACH ITERATION:

    HEAD CHANGE   HEAD CHANGE   HEAD CHANGE   HEAD CHANGE   HEAD CHANGE
  LAYER,ROW,COL LAYER,ROW,COL LAYER,ROW,COL LAYER,ROW,COL LAYER,ROW,COL
 ----------------------------------------------------------------------
     0.5070E-01    0.2570E-01    0.1307E-01    0.6689E-02    0.3376E-02
  (  1,  2,  7) (  1,  2,  7) (  1,  2,  7) (  1,  2,  7) (  1,  2,  7)
     0.1695E-02    0.9215E-03    0.4752E-03    0.2401E-03    0.1214E-03
  (  1,  2,  7) (  1,  2,  7) (  1,  2,  7) (  1,  2,  7) (  1,  2,  7)


 NO OUTPUT CONTROL FOR STRESS PERIOD    7   TIME STEP  12
 
 SOLVING FOR HEAD 
     9 ITERATIONS FOR TIME STEP  13 IN STRESS PERIOD    7

 MAXIMUM HEAD CHANGE FOR EACH ITERATION:

    HEAD CHANGE   HEAD CHANGE   HEAD CHANGE   HEAD CHANGE   HEAD CHANGE
  LAYER,ROW,COL LAYER,ROW,COL LAYER,ROW,COL LAYER,ROW,COL LAYER,ROW,COL
 ----------------------------------------------------------------------
    -0.5121E-01    0.2314E-01    0.1150E-01    0.5818E-02    0.2844E-02
  (  1,  3,  6) (  1,  2,  7) (  1,  2,  7) (  1,  2,  7) (  1,  2,  7)
     0.1448E-02    0.6902E-03    0.3784E-03   -0.1654E-03
  (  1,  2,  7) (  1,  2,  7) (  1,  2,  7) (  1,  3,  5)


 NO OUTPUT CONTROL FOR STRESS PERIOD    7   TIME STEP  13
 
 SOLVING FOR HEAD 
     9 ITERATIONS FOR TIME STEP  14 IN STRESS PERIOD    7

 MAXIMUM HEAD CHANGE FOR EACH ITERATION:

    HEAD CHANGE   HEAD CHANGE   HEAD CHANGE   HEAD CHANGE   HEAD CHANGE
  LAYER,ROW,COL LAYER,ROW,COL LAYER,ROW,COL LAYER,ROW,COL LAYER,ROW,COL
 ----------------------------------------------------------------------
    -0.5473E-01    0.2308E-01    0.1146E-01    0.5628E-02    0.2795E-02
  (  1,  3,  6) (  1,  2,  7) (  1,  2,  7) (  1,  2,  7) (  1,  2,  7)
     0.1438E-02    0.7265E-03    0.3213E-03    0.1523E-03
  (  1,  2,  7) (  1,  2,  7) (  1,  2,  7) (  1,  2,  7)


 NO OUTPUT CONTROL FOR STRESS PERIOD    7   TIME STEP  14
 
 SOLVING FOR HEAD 
     9 ITERATIONS FOR TIME STEP  15 IN STRESS PERIOD    7

 MAXIMUM HEAD CHANGE FOR EACH ITERATION:

    HEAD CHANGE   HEAD CHANGE   HEAD CHANGE   HEAD CHANGE   HEAD CHANGE
  LAYER,ROW,COL LAYER,ROW,COL LAYER,ROW,COL LAYER,ROW,COL LAYER,ROW,COL
 ----------------------------------------------------------------------
    -0.5673E-01   -0.2204E-01    0.1061E-01    0.5206E-02    0.2586E-02
  (  1,  3,  6) (  1,  3,  6) (  1,  2,  7) (  1,  2,  7) (  1,  2,  7)
     0.1288E-02    0.6430E-03    0.3227E-03    0.1554E-03
  (  1,  2,  7) (  1,  2,  7) (  1,  2,  7) (  1,  2,  6)


 OUTPUT CONTROL FOR STRESS PERIOD    7   TIME STEP  15
    PRINT BUDGET
    PRINT HEAD FOR ALL LAYERS
    SAVE HEAD FOR ALL LAYERS
    SAVE BUDGET

            WELLS   PERIOD    7   STEP  15
 WELL      1   LAYER   1   ROW     6   COL     4   RATE    -2.00000    
 WELL      2   LAYER   1   ROW     6   COL     5   RATE    -2.00000    
 WELL      3   LAYER   1   ROW     7   COL     4   RATE    -2.00000    
 WELL      4   LAYER   1   ROW     7   COL     5   RATE    -2.00000    
 WELL      5   LAYER   1   ROW     8   COL     4   RATE    -2.00000    
 WELL      6   LAYER   1   ROW     8   COL     5   RATE    -2.00000    
 WELL      7   LAYER   1   ROW     9   COL     4   RATE    -2.00000    
 WELL      8   LAYER   1   ROW     9   COL     5   RATE    -2.00000    
 WELL      9   LAYER   1   ROW    10   COL     4   RATE    -2.00000    
 WELL     10   LAYER   1   ROW    10   COL     5   RATE    -2.00000    

  HEAD DEP BOUNDS   PERIOD    7   STEP  15
 BOUNDARY      1   LAYER   1   ROW    13   COL     1   RATE   -0.263910    
 BOUNDARY      2   LAYER   1   ROW    14   COL     9   RATE    0.208964    
 UBDSV3 SAVING "           GW ET" ON UNIT  61 AT TIME STEP 15, STRESS PERIOD   7
 UBDSV3 SAVING "    UZF RECHARGE" ON UNIT  61 AT TIME STEP 15, STRESS PERIOD   7
 UBDSV3 SAVING " SURFACE LEAKAGE" ON UNIT  61 AT TIME STEP 15, STRESS PERIOD   7


UNSATURATED ZONE PACKAGE VOLUMETRIC BUDGET FOR  TIME STEP   15 STRESS PERIOD    7
  ------------------------------------------------------------------------------



     CUMULATIVE VOLUMES      L**3       RATES FOR THIS TIME STEP      L**3/T
     ------------------                 ------------------------

           IN:                                      IN:
           ---                                      ---
        INFILTRATION =  1269520998.1777          INFILTRATION =          25.4250

          OUT:                                     OUT:
          ----                                     ----
              UZF ET =  1438458466.5206                UZF ET =          69.1040
        UZF RECHARGE =   248586082.1485          UZF RECHARGE =           9.2148

            IN - OUT =  -417523550.4914              IN - OUT =         -52.8938

          STORAGE:                                 STORAGE:
          --------                                 --------
      STORAGE CHANGE =  -417323120.4899        STORAGE CHANGE =         -52.8823

 PERCENT DISCREPANCY IS DIFFERENCE BETWEEN IN-OUT MINUS CHANGE IN STORAGE
 DIVIDED BY THE AVERAGE OF IN AND OUT TIMES 100

 PERCENT DISCREPANCY =           0.00     PERCENT DISCREPANCY =          -0.01









 STREAM LISTING     PERIOD      7   STEP       15

 LAYER ROW COL. STREAM  RCH.  FLOW INTO     FLOW TO   FLOW OUT OF   OVRLND.     DIRECT     STREAM       STREAM     STREAM     STREAM   STREAMBED  STREAMBED
                SEG.NO.  NO.  STRM. RCH.    AQUIFER    STRM. RCH.    RUNOFF     PRECIP       ET          HEAD       DEPTH      WIDTH   CONDCTNC.   GRADIENT

   1    1    1     1     1    2.5000E+01  1.0446E+00   2.3955E+01  0.000E+00  0.000E+00  0.000E+00  1.09422E+03  1.172E+00  1.296E+01  5.831E-01  5.971E-01
   1    2    2     1     2    2.3955E+01  3.0653E+00   2.0890E+01  0.000E+00  0.000E+00  0.000E+00  1.08920E+03  1.140E+00  1.253E+01  8.773E-01  1.165E+00
   1    3    3     1     3    2.0890E+01  2.9040E+00   1.7986E+01  0.000E+00  0.000E+00  0.000E+00  1.08351E+03  1.091E+00  1.183E+01  7.099E-01  1.364E+00
   1    3    4     1     4    1.7986E+01  2.4667E+00   1.5519E+01  0.000E+00  0.000E+00  0.000E+00  1.07845E+03  1.045E+00  1.099E+01  6.098E-01  1.348E+00
   1    4    5     2     1    5.5194E+00  2.6624E+00   2.8570E+00  0.000E+00  0.000E+00  0.000E+00  1.07235E+03  4.134E-01  1.200E+01  7.800E-01  1.138E+00
   1    5    6     2     2    2.8570E+00  1.9534E+00   9.0359E-01  0.000E+00  0.000E+00  0.000E+00  1.06677E+03  2.557E-01  1.200E+01  6.000E-01  1.085E+00
   1    6    6     2     3    9.0359E-01  9.0359E-01   0.0000E+00  0.000E+00  0.000E+00  0.000E+00  1.06183E+03  3.706E-02  1.200E+01  6.000E-01  1.012E+00
   1    7    6     2     4    0.0000E+00  0.0000E+00   0.0000E+00  0.000E+00  0.000E+00  0.000E+00  1.05708E+03  0.000E+00  1.200E+01  6.000E-01  1.000E+00
   1    8    6     2     5    0.0000E+00  0.0000E+00   0.0000E+00  0.000E+00  0.000E+00  0.000E+00  1.05236E+03  0.000E+00  1.200E+01  6.000E-01  1.000E+00
   1    3    5     3     1    1.0000E+01  2.7227E+00   7.2773E+00  0.000E+00  0.000E+00  0.000E+00  1.07555E+03  1.909E+00  9.636E+00  7.227E-01  1.884E+00
   1    3    6     3     2    7.2773E+00  1.4819E+00   5.7954E+00  0.000E+00  0.000E+00  0.000E+00  1.07264E+03  1.727E+00  8.909E+00  6.682E-01  1.109E+00
   1    3    7     3     3    5.7954E+00  6.2472E-01   5.1707E+00  0.000E+00  0.000E+00  0.000E+00  1.06987E+03  1.555E+00  8.218E+00  5.547E-01  5.631E-01
   1    4    8     3     4    5.1707E+00  1.5037E+00   3.6669E+00  0.000E+00  0.000E+00  0.000E+00  1.06682E+03  1.364E+00  7.455E+00  6.709E-01  1.121E+00
   1    5    8     3     5    3.6669E+00  1.5790E+00   2.0880E+00  0.000E+00  0.000E+00  0.000E+00  1.06362E+03  1.164E+00  6.655E+00  4.991E-01  1.582E+00
   1    6    8     3     6    2.0880E+00  5.5980E-01   1.5282E+00  0.000E+00  0.000E+00  0.000E+00  1.06158E+03  1.036E+00  6.145E+00  1.844E-01  1.518E+00
   1    5   10     4     1    1.0000E+01  9.0525E-01   9.0947E+00  0.000E+00  0.000E+00  0.000E+00  1.07835E+03  6.210E-01  1.000E+01  2.500E-01  1.207E+00
   1    5    9     4     2    9.0947E+00  1.7835E+00   7.3113E+00  0.000E+00  0.000E+00  0.000E+00  1.07148E+03  5.670E-01  1.000E+01  5.000E-01  1.189E+00
   1    6    8     4     3    7.3113E+00  1.2257E+00   6.0855E+00  0.000E+00  0.000E+00  0.000E+00  1.06368E+03  5.021E-01  1.000E+01  3.500E-01  1.167E+00
   1    6    8     5     1    7.6137E+00  9.9103E-01   6.6227E+00  0.000E+00  0.000E+00  0.000E+00  1.05860E+03  5.963E-01  1.234E+01  4.935E-01  6.694E-01
   1    7    7     5     2    6.6227E+00  1.9103E+00   4.7124E+00  0.000E+00  0.000E+00  0.000E+00  1.05405E+03  5.506E-01  1.076E+01  5.380E-01  1.184E+00
   1    8    7     5     3    4.7124E+00  1.0940E+00   3.6184E+00  0.000E+00  0.000E+00  0.000E+00  1.04974E+03  4.943E-01  8.945E+00  3.131E-01  1.165E+00
   1    8    6     5     4    3.6184E+00  6.6983E-01   2.9486E+00  0.000E+00  0.000E+00  0.000E+00  1.04670E+03  4.548E-01  7.755E+00  1.939E-01  1.152E+00
   1    9    6     6     1    2.9486E+00  1.9595E+00   9.8910E-01  0.000E+00  0.000E+00  0.000E+00  1.04299E+03  2.658E-01  1.200E+01  6.000E-01  1.089E+00
   1   10    7     6     2    9.8910E-01  9.8910E-01   0.0000E+00  0.000E+00  0.000E+00  0.000E+00  1.03820E+03  1.978E-02  1.200E+01  6.000E-01  1.007E+00
   1   11    7     6     3    0.0000E+00  0.0000E+00   0.0000E+00  0.000E+00  0.000E+00  0.000E+00  1.03364E+03  0.000E+00  1.200E+01  6.000E-01  1.000E+00
   1   12    7     6     4    0.0000E+00  0.0000E+00   0.0000E+00  0.000E+00  0.000E+00  0.000E+00  1.02909E+03  0.000E+00  1.200E+01  6.000E-01  2.846E-01
   1   13    7     6     5    0.0000E+00 -8.0864E-01   8.0864E-01  0.000E+00  0.000E+00  0.000E+00  1.02591E+03  0.000E+00  1.200E+01  2.400E-01 -1.123E+00
   1   14    9     7     1    1.5000E+02  2.0443E+00   1.4796E+02  0.000E+00  0.000E+00  0.000E+00  1.03987E+03  2.286E+00  5.529E+01  5.592E+00  1.219E-01
   1   13    8     7     2    1.4796E+02  2.9895E+00   1.4497E+02  0.000E+00  0.000E+00  0.000E+00  1.03477E+03  2.272E+00  5.523E+01  6.144E+00  1.622E-01
   1   13    7     7     3    1.4497E+02  2.2279E+00   1.4274E+02  0.000E+00  0.000E+00  0.000E+00  1.02968E+03  2.258E+00  5.516E+01  5.579E+00  1.331E-01
   1   13    6     8     1    1.4355E+02  5.6852E-01   1.4298E+02  0.000E+00  0.000E+00  0.000E+00  1.02464E+03  2.769E+00  4.015E+01  4.091E+00  4.632E-02
   1   13    5     8     2    1.4298E+02 -2.0412E+00   1.4502E+02  0.000E+00  0.000E+00  0.000E+00  1.01840E+03  2.774E+00  4.022E+01  4.099E+00 -1.660E-01
   1   13    4     8     3    1.4502E+02 -3.7568E+00   1.4878E+02  0.000E+00  0.000E+00  0.000E+00  1.01217E+03  2.795E+00  4.053E+01  4.130E+00 -3.032E-01
   1   13    3     8     4    1.4878E+02 -4.0389E+00   1.5282E+02  0.000E+00  0.000E+00  0.000E+00  1.00595E+03  2.822E+00  4.093E+01  4.170E+00 -3.228E-01
   1   13    2     8     5    1.5282E+02 -2.0792E+00   1.5489E+02  0.000E+00  0.000E+00  0.000E+00  9.99719E+02  2.844E+00  4.123E+01  4.202E+00 -1.649E-01
   1   13    1     8     6    1.5489E+02 -5.4920E-01   1.5544E+02  0.000E+00  0.000E+00  0.000E+00  9.94728E+02  2.853E+00  4.137E+01  2.529E+00 -7.238E-02



1
              HEAD IN LAYER   1 AT END OF TIME STEP  15 IN STRESS PERIOD    7
  ---------------------------------------------------------------------------

           1       2       3       4       5       6       7       8       9      10
 ...................................................................................
   1  1092.43 1088.67 6999.00 6999.00 6999.00 6999.00 6999.00 6999.00 6999.00 6999.00
   2  1089.11 1085.71 1079.22 6999.00 6999.00 1073.73 1072.67 1070.57 6999.00 6999.00
   3  6999.00 1077.41 1074.42 1070.33 1071.78 1070.42 1068.75 1068.14 6999.00 6999.00
   4  1067.84 1068.41 1066.75 1063.28 1062.19 1060.94 1061.70 1064.58 1063.84 6999.00
   5  1063.69 1061.33 1058.77 1056.80 1056.57 1057.25 1057.21 1059.39 1062.91 1065.34
   6  1059.01 1055.40 1052.34 1050.30 1050.68 1052.60 1054.06 1056.59 1059.41 1063.67
   7  1055.35 1049.74 1046.48 1044.62 1045.34 1047.63 1050.32 1052.77 1054.17 6999.00
   8  6999.00 1042.39 1040.42 1039.05 1040.04 1042.56 1044.61 1047.19 1049.16 6999.00
   9  6999.00 1035.44 1034.43 1033.71 1035.01 1037.68 1038.81 1040.72 1043.74 6999.00
  10  6999.00 1028.41 1028.47 1028.85 1030.44 1032.77 1034.39 1036.26 1040.01 1044.38
  11  6999.00 1019.65 1021.22 1024.55 1026.63 1028.84 1030.48 1032.82 1036.29 6999.00
  12  1001.19 1008.85 1014.05 1018.84 1022.49 1025.78 1028.24 1031.11 1034.87 6999.00
  13   994.95 1000.21 1006.92 1013.08 1018.90 1024.50 1029.28 1034.29 1036.41 6999.00
  14  6999.00 1005.83 1011.53 1016.25 1021.28 1026.04 1030.32 1035.30 1039.50 6999.00
  15  6999.00 6999.00 1018.84 1021.83 1025.57 1028.55 6999.00 6999.00 6999.00 6999.00

 HEAD WILL BE SAVED ON UNIT   58 AT END OF TIME STEP  15, STRESS PERIOD    7
1
  VOLUMETRIC BUDGET FOR ENTIRE MODEL AT END OF TIME STEP 15 IN STRESS PERIOD   7
  ------------------------------------------------------------------------------

     CUMULATIVE VOLUMES      L**3       RATES FOR THIS TIME STEP      L**3/T
     ------------------                 ------------------------

           IN:                                      IN:
           ---                                      ---
             STORAGE =    67352672.0000               STORAGE =           5.4743
       CONSTANT HEAD =           0.0000         CONSTANT HEAD =           0.0000
               WELLS =           0.0000                 WELLS =           0.0000
     HEAD DEP BOUNDS =     3842466.5000       HEAD DEP BOUNDS =           0.2090
        UZF RECHARGE =   248586176.0000          UZF RECHARGE =           9.2148
               GW ET =           0.0000                 GW ET =           0.0000
     SURFACE LEAKAGE =           0.0000       SURFACE LEAKAGE =           0.0000
      STREAM LEAKAGE =   793941120.0000        STREAM LEAKAGE =          42.8302

            TOTAL IN =  1113722368.0000              TOTAL IN =          57.7284

          OUT:                                     OUT:
          ----                                     ----
             STORAGE =   261113344.0000               STORAGE =           6.1297
       CONSTANT HEAD =           0.0000         CONSTANT HEAD =           0.0000
               WELLS =   289079936.0000                 WELLS =          20.0000
     HEAD DEP BOUNDS =     4847531.0000       HEAD DEP BOUNDS =           0.2639
        UZF RECHARGE =           0.0000          UZF RECHARGE =           0.0000
               GW ET =   310083008.0000                 GW ET =          18.0630
     SURFACE LEAKAGE =           0.0000       SURFACE LEAKAGE =           0.0000
      STREAM LEAKAGE =   248416512.0000        STREAM LEAKAGE =          13.2739

           TOTAL OUT =  1113540352.0000             TOTAL OUT =          57.7305

            IN - OUT =      182016.0000              IN - OUT =      -2.1362E-03

 PERCENT DISCREPANCY =           0.02     PERCENT DISCREPANCY =           0.00






          TIME SUMMARY AT END OF TIME STEP  15 IN STRESS PERIOD    7
                    SECONDS     MINUTES      HOURS       DAYS        YEARS
                    -----------------------------------------------------------
   TIME STEP LENGTH 3.14103E+05  5235.0      87.251      3.6354     9.95332E-03
 STRESS PERIOD TIME 2.62800E+06  43800.      730.00      30.417     8.32763E-02
         TOTAL TIME 1.83960E+07 3.06600E+05  5110.0      212.92     0.58293    
1
1
                            STRESS PERIOD NO.    8, LENGTH =   2628000.    
                            -----------------------------------------------

                              NUMBER OF TIME STEPS =    15

                               MULTIPLIER FOR DELT =     1.100

                            INITIAL TIME STEP SIZE =   82713.07    

      0 WELLS

 REUSING NON-PARAMETER GHB CELLS FROM LAST STRESS PERIOD

      2 GHB CELLS

 REUSING STREAM SEGMENT DATA FROM LAST STRESS PERIOD



            AREAL INFILTRATION RATE
 READING ON UNIT   19 WITH FORMAT: (10F4.0)            

            1           2           3           4           5           6           7           8           9          10
 ........................................................................................................................
   1   5.0000E-09  1.0000E-08   0.000       0.000       0.000       0.000       0.000       0.000       0.000       0.000    
   2   1.0000E-08  5.0000E-09  1.0000E-08   0.000       0.000      4.0000E-08  4.0000E-08  2.5000E-08   0.000       0.000    
   3    0.000      2.5000E-08  5.0000E-09  5.0000E-09  4.0000E-08  4.0000E-08  2.5000E-08  2.5000E-08   0.000       0.000    
   4   4.0000E-08  2.5000E-08  5.0000E-09  5.0000E-09  5.0000E-09  5.0000E-09  5.0000E-09  5.0000E-09  1.0000E-08   0.000    
   5   4.0000E-08  2.5000E-08  5.0000E-09  5.0000E-09  5.0000E-09  5.0000E-09  5.0000E-09  5.0000E-09  5.0000E-09  5.0000E-09
   6   4.0000E-08  2.5000E-08  2.5000E-08  1.0000E-08  1.0000E-08  5.0000E-09  5.0000E-09  5.0000E-09  5.0000E-09  2.5000E-08
   7   4.0000E-08  2.5000E-08  2.5000E-08  1.0000E-08  1.0000E-08  5.0000E-09  5.0000E-09  1.0000E-08  1.0000E-08   0.000    
   8    0.000      2.5000E-08  2.5000E-08  1.0000E-08  1.0000E-08  5.0000E-09  5.0000E-09  1.0000E-08  2.5000E-08   0.000    
   9    0.000      2.5000E-08  2.5000E-08  1.0000E-08  1.0000E-08  5.0000E-09  5.0000E-09  1.0000E-08  2.5000E-08   0.000    
  10    0.000      2.5000E-08  2.5000E-08  1.0000E-08  1.0000E-08  5.0000E-09  5.0000E-09  1.0000E-08  2.5000E-08  4.0000E-08
  11    0.000      5.0000E-09  5.0000E-09  5.0000E-09  5.0000E-09  5.0000E-09  5.0000E-09  1.0000E-08  2.5000E-08   0.000    
  12   5.0000E-09  5.0000E-09  5.0000E-09  5.0000E-09  5.0000E-09  5.0000E-09  5.0000E-09  5.0000E-09  1.0000E-08   0.000    
  13   5.0000E-09  5.0000E-09  1.0000E-08  1.0000E-08  1.0000E-08  1.0000E-08  1.0000E-08  5.0000E-09  5.0000E-09   0.000    
  14    0.000      1.0000E-08  2.5000E-08  2.5000E-08  2.5000E-08  2.5000E-08  2.5000E-08  1.0000E-08  5.0000E-09   0.000    
  15    0.000       0.000      4.0000E-08  4.0000E-08  4.0000E-08  4.0000E-08   0.000       0.000       0.000       0.000    

USING ET RATE FROM PREVIOUS STRESS PERIOD. CURRENT PERIOD IS:       8

 USING ET EXTINCTION DEPTH FROM PREVIOUS STRESS PERIOD. CURRENT PERIOD IS:       8

 USING EXTINCTION WATER CONTENT FROM PREVIOUS STRESS PERIOD. CURRENT PERIOD IS:       8
 
 SOLVING FOR HEAD 

     7 ITERATIONS FOR TIME STEP   1 IN STRESS PERIOD    8

 MAXIMUM HEAD CHANGE FOR EACH ITERATION:

    HEAD CHANGE   HEAD CHANGE   HEAD CHANGE   HEAD CHANGE   HEAD CHANGE
  LAYER,ROW,COL LAYER,ROW,COL LAYER,ROW,COL LAYER,ROW,COL LAYER,ROW,COL
 ----------------------------------------------------------------------
     0.2274E-01   -0.5886E-02   -0.2461E-02    0.1136E-02    0.5359E-03
  (  1,  6,  5) (  1,  3,  6) (  1,  3,  5) (  1,  2,  7) (  1,  2,  7)
     0.2615E-03    0.1038E-03
  (  1,  2,  7) (  1,  2,  7)


 NO OUTPUT CONTROL FOR STRESS PERIOD    8   TIME STEP   1
 
 SOLVING FOR HEAD 
     7 ITERATIONS FOR TIME STEP   2 IN STRESS PERIOD    8

 MAXIMUM HEAD CHANGE FOR EACH ITERATION:

    HEAD CHANGE   HEAD CHANGE   HEAD CHANGE   HEAD CHANGE   HEAD CHANGE
  LAYER,ROW,COL LAYER,ROW,COL LAYER,ROW,COL LAYER,ROW,COL LAYER,ROW,COL
 ----------------------------------------------------------------------
     0.2424E-01    0.6838E-02   -0.2534E-02    0.1177E-02    0.5747E-03
  (  1,  6,  5) (  1,  8,  4) (  1,  3,  5) (  1,  2,  7) (  1,  2,  7)
     0.2847E-03    0.1699E-03
  (  1,  2,  7) (  1,  2,  7)


 NO OUTPUT CONTROL FOR STRESS PERIOD    8   TIME STEP   2
 
 SOLVING FOR HEAD 
     7 ITERATIONS FOR TIME STEP   3 IN STRESS PERIOD    8

 MAXIMUM HEAD CHANGE FOR EACH ITERATION:

    HEAD CHANGE   HEAD CHANGE   HEAD CHANGE   HEAD CHANGE   HEAD CHANGE
  LAYER,ROW,COL LAYER,ROW,COL LAYER,ROW,COL LAYER,ROW,COL LAYER,ROW,COL
 ----------------------------------------------------------------------
     0.2689E-01    0.8956E-02    0.2990E-02    0.1194E-02    0.6121E-03
  (  1,  8,  5) (  1,  8,  4) (  1,  9,  4) (  1,  2,  7) (  1,  2,  7)
     0.3093E-03    0.1241E-03
  (  1,  2,  7) (  1,  2,  7)


 NO OUTPUT CONTROL FOR STRESS PERIOD    8   TIME STEP   3
 
 SOLVING FOR HEAD 
     7 ITERATIONS FOR TIME STEP   4 IN STRESS PERIOD    8

 MAXIMUM HEAD CHANGE FOR EACH ITERATION:

    HEAD CHANGE   HEAD CHANGE   HEAD CHANGE   HEAD CHANGE   HEAD CHANGE
  LAYER,ROW,COL LAYER,ROW,COL LAYER,ROW,COL LAYER,ROW,COL LAYER,ROW,COL
 ----------------------------------------------------------------------
     0.2922E-01    0.9760E-02    0.3320E-02    0.1291E-02    0.6685E-03
  (  1,  8,  4) (  1,  8,  4) (  1,  8,  4) (  1,  2,  7) (  1,  2,  7)
     0.2706E-03    0.1885E-03
  (  1,  2,  7) (  1,  2,  6)


 NO OUTPUT CONTROL FOR STRESS PERIOD    8   TIME STEP   4
 
 SOLVING FOR HEAD 
     7 ITERATIONS FOR TIME STEP   5 IN STRESS PERIOD    8

 MAXIMUM HEAD CHANGE FOR EACH ITERATION:

    HEAD CHANGE   HEAD CHANGE   HEAD CHANGE   HEAD CHANGE   HEAD CHANGE
  LAYER,ROW,COL LAYER,ROW,COL LAYER,ROW,COL LAYER,ROW,COL LAYER,ROW,COL
 ----------------------------------------------------------------------
     0.3199E-01    0.1070E-01    0.3572E-02    0.1314E-02    0.6387E-03
  (  1,  8,  4) (  1,  8,  4) (  1,  8,  4) (  1,  2,  7) (  1,  2,  7)
     0.2782E-03    0.1309E-03
  (  1,  2,  7) (  1,  2,  7)


 OUTPUT CONTROL FOR STRESS PERIOD    8   TIME STEP   5
    PRINT BUDGET
    SAVE BUDGET

  HEAD DEP BOUNDS   PERIOD    8   STEP   5
 BOUNDARY      1   LAYER   1   ROW    13   COL     1   RATE   -0.264121    
 BOUNDARY      2   LAYER   1   ROW    14   COL     9   RATE    0.208953    
 UBDSV3 SAVING "           GW ET" ON UNIT  61 AT TIME STEP  5, STRESS PERIOD   8
 UBDSV3 SAVING "    UZF RECHARGE" ON UNIT  61 AT TIME STEP  5, STRESS PERIOD   8
 UBDSV3 SAVING " SURFACE LEAKAGE" ON UNIT  61 AT TIME STEP  5, STRESS PERIOD   8


UNSATURATED ZONE PACKAGE VOLUMETRIC BUDGET FOR  TIME STEP    5 STRESS PERIOD    8
  ------------------------------------------------------------------------------



     CUMULATIVE VOLUMES      L**3       RATES FOR THIS TIME STEP      L**3/T
     ------------------                 ------------------------

           IN:                                      IN:
           ---                                      ---
        INFILTRATION =  1290919169.0557          INFILTRATION =          42.3750

          OUT:                                     OUT:
          ----                                     ----
              UZF ET =  1473198444.5477                UZF ET =          68.6433
        UZF RECHARGE =   254087410.9845          UZF RECHARGE =          11.9913

            IN - OUT =  -436366686.4766              IN - OUT =         -38.2596

          STORAGE:                                 STORAGE:
          --------                                 --------
      STORAGE CHANGE =  -436166209.6701        STORAGE CHANGE =         -38.2595

 PERCENT DISCREPANCY IS DIFFERENCE BETWEEN IN-OUT MINUS CHANGE IN STORAGE
 DIVIDED BY THE AVERAGE OF IN AND OUT TIMES 100

 PERCENT DISCREPANCY =           0.00     PERCENT DISCREPANCY =           0.00









 STREAM LISTING     PERIOD      8   STEP        5

 LAYER ROW COL. STREAM  RCH.  FLOW INTO     FLOW TO   FLOW OUT OF   OVRLND.     DIRECT     STREAM       STREAM     STREAM     STREAM   STREAMBED  STREAMBED
                SEG.NO.  NO.  STRM. RCH.    AQUIFER    STRM. RCH.    RUNOFF     PRECIP       ET          HEAD       DEPTH      WIDTH   CONDCTNC.   GRADIENT

   1    1    1     1     1    2.5000E+01  1.0466E+00   2.3953E+01  0.000E+00  0.000E+00  0.000E+00  1.09422E+03  1.172E+00  1.296E+01  5.831E-01  5.983E-01
   1    2    2     1     2    2.3953E+01  3.0653E+00   2.0888E+01  0.000E+00  0.000E+00  0.000E+00  1.08920E+03  1.140E+00  1.253E+01  8.773E-01  1.165E+00
   1    3    3     1     3    2.0888E+01  2.9039E+00   1.7984E+01  0.000E+00  0.000E+00  0.000E+00  1.08351E+03  1.091E+00  1.183E+01  7.098E-01  1.364E+00
   1    3    4     1     4    1.7984E+01  2.4665E+00   1.5518E+01  0.000E+00  0.000E+00  0.000E+00  1.07845E+03  1.045E+00  1.099E+01  6.098E-01  1.348E+00
   1    4    5     2     1    5.5177E+00  2.6624E+00   2.8554E+00  0.000E+00  0.000E+00  0.000E+00  1.07235E+03  4.133E-01  1.200E+01  7.800E-01  1.138E+00
   1    5    6     2     2    2.8554E+00  1.9533E+00   9.0205E-01  0.000E+00  0.000E+00  0.000E+00  1.06676E+03  2.555E-01  1.200E+01  6.000E-01  1.085E+00
   1    6    6     2     3    9.0205E-01  9.0205E-01   0.0000E+00  0.000E+00  0.000E+00  0.000E+00  1.06183E+03  3.702E-02  1.200E+01  6.000E-01  1.012E+00
   1    7    6     2     4    0.0000E+00  0.0000E+00   0.0000E+00  0.000E+00  0.000E+00  0.000E+00  1.05708E+03  0.000E+00  1.200E+01  6.000E-01  1.000E+00
   1    8    6     2     5    0.0000E+00  0.0000E+00   0.0000E+00  0.000E+00  0.000E+00  0.000E+00  1.05236E+03  0.000E+00  1.200E+01  6.000E-01  1.000E+00
   1    3    5     3     1    1.0000E+01  2.8178E+00   7.1822E+00  0.000E+00  0.000E+00  0.000E+00  1.07555E+03  1.909E+00  9.636E+00  7.227E-01  1.949E+00
   1    3    6     3     2    7.1822E+00  1.5735E+00   5.6087E+00  0.000E+00  0.000E+00  0.000E+00  1.07264E+03  1.727E+00  8.909E+00  6.682E-01  1.177E+00
   1    3    7     3     3    5.6087E+00  6.7539E-01   4.9333E+00  0.000E+00  0.000E+00  0.000E+00  1.06987E+03  1.555E+00  8.218E+00  5.547E-01  6.088E-01
   1    4    8     3     4    4.9333E+00  1.5078E+00   3.4255E+00  0.000E+00  0.000E+00  0.000E+00  1.06682E+03  1.364E+00  7.455E+00  6.709E-01  1.124E+00
   1    5    8     3     5    3.4255E+00  1.5790E+00   1.8466E+00  0.000E+00  0.000E+00  0.000E+00  1.06362E+03  1.164E+00  6.655E+00  4.991E-01  1.582E+00
   1    6    8     3     6    1.8466E+00  5.5980E-01   1.2868E+00  0.000E+00  0.000E+00  0.000E+00  1.06158E+03  1.036E+00  6.145E+00  1.844E-01  1.518E+00
   1    5   10     4     1    1.0000E+01  9.0525E-01   9.0947E+00  0.000E+00  0.000E+00  0.000E+00  1.07835E+03  6.210E-01  1.000E+01  2.500E-01  1.207E+00
   1    5    9     4     2    9.0947E+00  1.7835E+00   7.3113E+00  0.000E+00  0.000E+00  0.000E+00  1.07148E+03  5.670E-01  1.000E+01  5.000E-01  1.189E+00
   1    6    8     4     3    7.3113E+00  1.2257E+00   6.0855E+00  0.000E+00  0.000E+00  0.000E+00  1.06368E+03  5.021E-01  1.000E+01  3.500E-01  1.167E+00
   1    6    8     5     1    7.3723E+00  9.6588E-01   6.4064E+00  0.000E+00  0.000E+00  0.000E+00  1.05859E+03  5.895E-01  1.210E+01  4.839E-01  6.653E-01
   1    7    7     5     2    6.4064E+00  1.8671E+00   4.5393E+00  0.000E+00  0.000E+00  0.000E+00  1.05404E+03  5.439E-01  1.054E+01  5.269E-01  1.181E+00
   1    8    7     5     3    4.5393E+00  1.0666E+00   3.4727E+00  0.000E+00  0.000E+00  0.000E+00  1.04974E+03  4.876E-01  8.738E+00  3.058E-01  1.163E+00
   1    8    6     5     4    3.4727E+00  6.5169E-01   2.8210E+00  0.000E+00  0.000E+00  0.000E+00  1.04670E+03  4.481E-01  7.560E+00  1.890E-01  1.149E+00
   1    9    6     6     1    2.8210E+00  1.9533E+00   8.6764E-01  0.000E+00  0.000E+00  0.000E+00  1.04298E+03  2.556E-01  1.200E+01  6.000E-01  1.085E+00
   1   10    7     6     2    8.6764E-01  8.6764E-01   0.0000E+00  0.000E+00  0.000E+00  0.000E+00  1.03822E+03  3.658E-02  1.200E+01  6.000E-01  1.012E+00
   1   11    7     6     3    0.0000E+00  0.0000E+00   0.0000E+00  0.000E+00  0.000E+00  0.000E+00  1.03364E+03  0.000E+00  1.200E+01  6.000E-01  1.000E+00
   1   12    7     6     4    0.0000E+00  0.0000E+00   0.0000E+00  0.000E+00  0.000E+00  0.000E+00  1.02909E+03  0.000E+00  1.200E+01  6.000E-01  2.831E-01
   1   13    7     6     5    0.0000E+00 -8.0727E-01   8.0727E-01  0.000E+00  0.000E+00  0.000E+00  1.02591E+03  0.000E+00  1.200E+01  2.400E-01 -1.121E+00
   1   14    9     7     1    1.5000E+02  2.0427E+00   1.4796E+02  0.000E+00  0.000E+00  0.000E+00  1.03987E+03  2.286E+00  5.529E+01  5.592E+00  1.218E-01
   1   13    8     7     2    1.4796E+02  2.9876E+00   1.4497E+02  0.000E+00  0.000E+00  0.000E+00  1.03477E+03  2.272E+00  5.523E+01  6.144E+00  1.621E-01
   1   13    7     7     3    1.4497E+02  2.2593E+00   1.4271E+02  0.000E+00  0.000E+00  0.000E+00  1.02968E+03  2.258E+00  5.516E+01  5.579E+00  1.350E-01
   1   13    6     8     1    1.4352E+02  6.0308E-01   1.4291E+02  0.000E+00  0.000E+00  0.000E+00  1.02464E+03  2.768E+00  4.014E+01  4.091E+00  4.914E-02
   1   13    5     8     2    1.4291E+02 -2.0316E+00   1.4495E+02  0.000E+00  0.000E+00  0.000E+00  1.01840E+03  2.774E+00  4.022E+01  4.098E+00 -1.652E-01
   1   13    4     8     3    1.4495E+02 -3.7470E+00   1.4869E+02  0.000E+00  0.000E+00  0.000E+00  1.01217E+03  2.794E+00  4.052E+01  4.129E+00 -3.025E-01
   1   13    3     8     4    1.4869E+02 -4.0259E+00   1.5272E+02  0.000E+00  0.000E+00  0.000E+00  1.00595E+03  2.822E+00  4.092E+01  4.169E+00 -3.219E-01
   1   13    2     8     5    1.5272E+02 -2.0793E+00   1.5480E+02  0.000E+00  0.000E+00  0.000E+00  9.99718E+02  2.843E+00  4.122E+01  4.201E+00 -1.650E-01
   1   13    1     8     6    1.5480E+02 -5.6467E-01   1.5536E+02  0.000E+00  0.000E+00  0.000E+00  9.94727E+02  2.852E+00  4.136E+01  2.529E+00 -7.444E-02



1
  VOLUMETRIC BUDGET FOR ENTIRE MODEL AT END OF TIME STEP  5 IN STRESS PERIOD   8
  ------------------------------------------------------------------------------

     CUMULATIVE VOLUMES      L**3       RATES FOR THIS TIME STEP      L**3/T
     ------------------                 ------------------------

           IN:                                      IN:
           ---                                      ---
             STORAGE =    68576296.0000               STORAGE =           2.3347
       CONSTANT HEAD =           0.0000         CONSTANT HEAD =           0.0000
               WELLS =           0.0000                 WELLS =           0.0000
     HEAD DEP BOUNDS =     3947985.2500       HEAD DEP BOUNDS =           0.2090
        UZF RECHARGE =   254087504.0000          UZF RECHARGE =          11.9914
               GW ET =           0.0000                 GW ET =           0.0000
     SURFACE LEAKAGE =           0.0000       SURFACE LEAKAGE =           0.0000
      STREAM LEAKAGE =   815586944.0000        STREAM LEAKAGE =          42.8927

            TOTAL IN =  1142198784.0000              TOTAL IN =          57.4277

          OUT:                                     OUT:
          ----                                     ----
             STORAGE =   273626976.0000               STORAGE =          25.8266
       CONSTANT HEAD =           0.0000         CONSTANT HEAD =           0.0000
               WELLS =   289079936.0000                 WELLS =           0.0000
     HEAD DEP BOUNDS =     4980867.0000       HEAD DEP BOUNDS =           0.2641
        UZF RECHARGE =           0.0000          UZF RECHARGE =           0.0000
               GW ET =   319212000.0000                 GW ET =          18.0864
     SURFACE LEAKAGE =           0.0000       SURFACE LEAKAGE =           0.0000
      STREAM LEAKAGE =   255113264.0000        STREAM LEAKAGE =          13.2557

           TOTAL OUT =  1142013056.0000             TOTAL OUT =          57.4328

            IN - OUT =      185728.0000              IN - OUT =      -5.1193E-03

 PERCENT DISCREPANCY =           0.02     PERCENT DISCREPANCY =          -0.01






          TIME SUMMARY AT END OF TIME STEP   5 IN STRESS PERIOD    8
                    SECONDS     MINUTES      HOURS       DAYS        YEARS
                    -----------------------------------------------------------
   TIME STEP LENGTH 1.21100E+05  2018.3      33.639      1.4016     3.83743E-03
 STRESS PERIOD TIME 5.04972E+05  8416.2      140.27      5.8446     1.60016E-02
         TOTAL TIME 1.89010E+07 3.15016E+05  5250.3      218.76     0.59894    
1
 
 SOLVING FOR HEAD 
     7 ITERATIONS FOR TIME STEP   6 IN STRESS PERIOD    8

 MAXIMUM HEAD CHANGE FOR EACH ITERATION:

    HEAD CHANGE   HEAD CHANGE   HEAD CHANGE   HEAD CHANGE   HEAD CHANGE
  LAYER,ROW,COL LAYER,ROW,COL LAYER,ROW,COL LAYER,ROW,COL LAYER,ROW,COL
 ----------------------------------------------------------------------
     0.3489E-01    0.1171E-01    0.3916E-02    0.1313E-02    0.6759E-03
  (  1,  8,  4) (  1,  8,  4) (  1,  8,  4) (  1,  2,  7) (  1,  2,  7)
     0.3003E-03    0.1428E-03
  (  1,  2,  7) (  1,  2,  7)


 NO OUTPUT CONTROL FOR STRESS PERIOD    8   TIME STEP   6
 
 SOLVING FOR HEAD 
     7 ITERATIONS FOR TIME STEP   7 IN STRESS PERIOD    8

 MAXIMUM HEAD CHANGE FOR EACH ITERATION:

    HEAD CHANGE   HEAD CHANGE   HEAD CHANGE   HEAD CHANGE   HEAD CHANGE
  LAYER,ROW,COL LAYER,ROW,COL LAYER,ROW,COL LAYER,ROW,COL LAYER,ROW,COL
 ----------------------------------------------------------------------
     0.3805E-01    0.1273E-01    0.4272E-02    0.1464E-02    0.6447E-03
  (  1,  8,  4) (  1,  8,  4) (  1,  8,  4) (  1,  7,  4) (  1,  2,  7)
     0.3112E-03    0.1532E-03
  (  1,  2,  7) (  1,  2,  7)


 NO OUTPUT CONTROL FOR STRESS PERIOD    8   TIME STEP   7
 
 SOLVING FOR HEAD 
     8 ITERATIONS FOR TIME STEP   8 IN STRESS PERIOD    8

 MAXIMUM HEAD CHANGE FOR EACH ITERATION:

    HEAD CHANGE   HEAD CHANGE   HEAD CHANGE   HEAD CHANGE   HEAD CHANGE
  LAYER,ROW,COL LAYER,ROW,COL LAYER,ROW,COL LAYER,ROW,COL LAYER,ROW,COL
 ----------------------------------------------------------------------
     0.4139E-01    0.1385E-01    0.4620E-02    0.1573E-02    0.6809E-03
  (  1,  8,  4) (  1,  8,  4) (  1,  8,  4) (  1,  8,  4) (  1,  2,  7)
     0.3352E-03   -0.2010E-03    0.1125E-03
  (  1,  2,  7) (  1,  3,  6) (  1,  2,  6)


 NO OUTPUT CONTROL FOR STRESS PERIOD    8   TIME STEP   8
 
 SOLVING FOR HEAD 
     7 ITERATIONS FOR TIME STEP   9 IN STRESS PERIOD    8

 MAXIMUM HEAD CHANGE FOR EACH ITERATION:

    HEAD CHANGE   HEAD CHANGE   HEAD CHANGE   HEAD CHANGE   HEAD CHANGE
  LAYER,ROW,COL LAYER,ROW,COL LAYER,ROW,COL LAYER,ROW,COL LAYER,ROW,COL
 ----------------------------------------------------------------------
     0.4505E-01    0.1508E-01    0.5049E-02    0.1693E-02    0.5643E-03
  (  1,  8,  4) (  1,  8,  4) (  1,  8,  4) (  1,  7,  4) (  1,  2,  7)
     0.2775E-03    0.1104E-03
  (  1,  2,  7) (  1,  2,  7)


 NO OUTPUT CONTROL FOR STRESS PERIOD    8   TIME STEP   9
 
 SOLVING FOR HEAD 
     7 ITERATIONS FOR TIME STEP  10 IN STRESS PERIOD    8

 MAXIMUM HEAD CHANGE FOR EACH ITERATION:

    HEAD CHANGE   HEAD CHANGE   HEAD CHANGE   HEAD CHANGE   HEAD CHANGE
  LAYER,ROW,COL LAYER,ROW,COL LAYER,ROW,COL LAYER,ROW,COL LAYER,ROW,COL
 ----------------------------------------------------------------------
     0.4888E-01    0.1633E-01    0.5499E-02    0.1826E-02    0.6054E-03
  (  1,  8,  4) (  1,  8,  4) (  1,  8,  4) (  1,  8,  4) (  1,  8,  4)
     0.2271E-03    0.1058E-03
  (  1,  2,  7) (  1,  2,  6)


 OUTPUT CONTROL FOR STRESS PERIOD    8   TIME STEP  10
    PRINT BUDGET
    SAVE BUDGET

  HEAD DEP BOUNDS   PERIOD    8   STEP  10
 BOUNDARY      1   LAYER   1   ROW    13   COL     1   RATE   -0.264127    
 BOUNDARY      2   LAYER   1   ROW    14   COL     9   RATE    0.208954    
 UBDSV3 SAVING "           GW ET" ON UNIT  61 AT TIME STEP 10, STRESS PERIOD   8
 UBDSV3 SAVING "    UZF RECHARGE" ON UNIT  61 AT TIME STEP 10, STRESS PERIOD   8
 UBDSV3 SAVING " SURFACE LEAKAGE" ON UNIT  61 AT TIME STEP 10, STRESS PERIOD   8


UNSATURATED ZONE PACKAGE VOLUMETRIC BUDGET FOR  TIME STEP   10 STRESS PERIOD    8
  ------------------------------------------------------------------------------



     CUMULATIVE VOLUMES      L**3       RATES FOR THIS TIME STEP      L**3/T
     ------------------                 ------------------------

           IN:                                      IN:
           ---                                      ---
        INFILTRATION =  1325381138.9717          INFILTRATION =          42.3750

          OUT:                                     OUT:
          ----                                     ----
              UZF ET =  1528848911.2782                UZF ET =          68.2911
        UZF RECHARGE =   263530618.0712          UZF RECHARGE =          11.4533

            IN - OUT =  -466998390.3777              IN - OUT =         -37.3695

          STORAGE:                                 STORAGE:
          --------                                 --------
      STORAGE CHANGE =  -466797935.8736        STORAGE CHANGE =         -37.3709

 PERCENT DISCREPANCY IS DIFFERENCE BETWEEN IN-OUT MINUS CHANGE IN STORAGE
 DIVIDED BY THE AVERAGE OF IN AND OUT TIMES 100

 PERCENT DISCREPANCY =           0.00     PERCENT DISCREPANCY =           0.00









 STREAM LISTING     PERIOD      8   STEP       10

 LAYER ROW COL. STREAM  RCH.  FLOW INTO     FLOW TO   FLOW OUT OF   OVRLND.     DIRECT     STREAM       STREAM     STREAM     STREAM   STREAMBED  STREAMBED
                SEG.NO.  NO.  STRM. RCH.    AQUIFER    STRM. RCH.    RUNOFF     PRECIP       ET          HEAD       DEPTH      WIDTH   CONDCTNC.   GRADIENT

   1    1    1     1     1    2.5000E+01  1.0495E+00   2.3951E+01  0.000E+00  0.000E+00  0.000E+00  1.09422E+03  1.172E+00  1.296E+01  5.831E-01  6.000E-01
   1    2    2     1     2    2.3951E+01  3.0654E+00   2.0885E+01  0.000E+00  0.000E+00  0.000E+00  1.08920E+03  1.140E+00  1.253E+01  8.772E-01  1.165E+00
   1    3    3     1     3    2.0885E+01  2.9036E+00   1.7981E+01  0.000E+00  0.000E+00  0.000E+00  1.08351E+03  1.091E+00  1.183E+01  7.098E-01  1.364E+00
   1    3    4     1     4    1.7981E+01  2.4663E+00   1.5515E+01  0.000E+00  0.000E+00  0.000E+00  1.07845E+03  1.045E+00  1.099E+01  6.097E-01  1.348E+00
   1    4    5     2     1    5.5152E+00  2.6623E+00   2.8529E+00  0.000E+00  0.000E+00  0.000E+00  1.07235E+03  4.131E-01  1.200E+01  7.800E-01  1.138E+00
   1    5    6     2     2    2.8529E+00  1.9532E+00   8.9969E-01  0.000E+00  0.000E+00  0.000E+00  1.06676E+03  2.553E-01  1.200E+01  6.000E-01  1.085E+00
   1    6    6     2     3    8.9969E-01  8.9969E-01   0.0000E+00  0.000E+00  0.000E+00  0.000E+00  1.06183E+03  3.697E-02  1.200E+01  6.000E-01  1.012E+00
   1    7    6     2     4    0.0000E+00  0.0000E+00   0.0000E+00  0.000E+00  0.000E+00  0.000E+00  1.05708E+03  0.000E+00  1.200E+01  6.000E-01  1.000E+00
   1    8    6     2     5    0.0000E+00  0.0000E+00   0.0000E+00  0.000E+00  0.000E+00  0.000E+00  1.05236E+03  0.000E+00  1.200E+01  6.000E-01  1.000E+00
   1    3    5     3     1    1.0000E+01  2.8252E+00   7.1748E+00  0.000E+00  0.000E+00  0.000E+00  1.07555E+03  1.909E+00  9.636E+00  7.227E-01  1.955E+00
   1    3    6     3     2    7.1748E+00  1.6808E+00   5.4940E+00  0.000E+00  0.000E+00  0.000E+00  1.07264E+03  1.727E+00  8.909E+00  6.682E-01  1.258E+00
   1    3    7     3     3    5.4940E+00  7.4109E-01   4.7529E+00  0.000E+00  0.000E+00  0.000E+00  1.06987E+03  1.555E+00  8.218E+00  5.547E-01  6.680E-01
   1    4    8     3     4    4.7529E+00  1.5173E+00   3.2356E+00  0.000E+00  0.000E+00  0.000E+00  1.06682E+03  1.364E+00  7.455E+00  6.709E-01  1.131E+00
   1    5    8     3     5    3.2356E+00  1.5790E+00   1.6567E+00  0.000E+00  0.000E+00  0.000E+00  1.06362E+03  1.164E+00  6.655E+00  4.991E-01  1.582E+00
   1    6    8     3     6    1.6567E+00  5.5980E-01   1.0969E+00  0.000E+00  0.000E+00  0.000E+00  1.06158E+03  1.036E+00  6.145E+00  1.844E-01  1.518E+00
   1    5   10     4     1    1.0000E+01  9.0525E-01   9.0947E+00  0.000E+00  0.000E+00  0.000E+00  1.07835E+03  6.210E-01  1.000E+01  2.500E-01  1.207E+00
   1    5    9     4     2    9.0947E+00  1.7835E+00   7.3113E+00  0.000E+00  0.000E+00  0.000E+00  1.07148E+03  5.670E-01  1.000E+01  5.000E-01  1.189E+00
   1    6    8     4     3    7.3113E+00  1.2257E+00   6.0855E+00  0.000E+00  0.000E+00  0.000E+00  1.06368E+03  5.021E-01  1.000E+01  3.500E-01  1.167E+00
   1    6    8     5     1    7.1824E+00  9.4424E-01   6.2382E+00  0.000E+00  0.000E+00  0.000E+00  1.05858E+03  5.841E-01  1.191E+01  4.763E-01  6.608E-01
   1    7    7     5     2    6.2382E+00  1.8332E+00   4.4050E+00  0.000E+00  0.000E+00  0.000E+00  1.05404E+03  5.386E-01  1.036E+01  5.181E-01  1.180E+00
   1    8    7     5     3    4.4050E+00  1.0452E+00   3.3598E+00  0.000E+00  0.000E+00  0.000E+00  1.04973E+03  4.823E-01  8.575E+00  3.001E-01  1.161E+00
   1    8    6     5     4    3.3598E+00  6.3746E-01   2.7224E+00  0.000E+00  0.000E+00  0.000E+00  1.04669E+03  4.428E-01  7.406E+00  1.852E-01  1.148E+00
   1    9    6     6     1    2.7224E+00  1.9485E+00   7.7389E-01  0.000E+00  0.000E+00  0.000E+00  1.04297E+03  2.475E-01  1.200E+01  6.000E-01  1.082E+00
   1   10    7     6     2    7.7389E-01  7.7389E-01   0.0000E+00  0.000E+00  0.000E+00  0.000E+00  1.03822E+03  3.415E-02  1.200E+01  6.000E-01  1.011E+00
   1   11    7     6     3    0.0000E+00  0.0000E+00   0.0000E+00  0.000E+00  0.000E+00  0.000E+00  1.03364E+03  0.000E+00  1.200E+01  6.000E-01  1.000E+00
   1   12    7     6     4    0.0000E+00  0.0000E+00   0.0000E+00  0.000E+00  0.000E+00  0.000E+00  1.02909E+03  0.000E+00  1.200E+01  6.000E-01  2.810E-01
   1   13    7     6     5    0.0000E+00 -8.0467E-01   8.0467E-01  0.000E+00  0.000E+00  0.000E+00  1.02591E+03  0.000E+00  1.200E+01  2.400E-01 -1.118E+00
   1   14    9     7     1    1.5000E+02  2.0429E+00   1.4796E+02  0.000E+00  0.000E+00  0.000E+00  1.03987E+03  2.286E+00  5.529E+01  5.592E+00  1.218E-01
   1   13    8     7     2    1.4796E+02  2.9911E+00   1.4497E+02  0.000E+00  0.000E+00  0.000E+00  1.03477E+03  2.272E+00  5.523E+01  6.144E+00  1.623E-01
   1   13    7     7     3    1.4497E+02  2.3187E+00   1.4265E+02  0.000E+00  0.000E+00  0.000E+00  1.02968E+03  2.258E+00  5.516E+01  5.578E+00  1.385E-01
   1   13    6     8     1    1.4345E+02  6.5357E-01   1.4280E+02  0.000E+00  0.000E+00  0.000E+00  1.02464E+03  2.768E+00  4.013E+01  4.090E+00  5.327E-02
   1   13    5     8     2    1.4280E+02 -2.0333E+00   1.4483E+02  0.000E+00  0.000E+00  0.000E+00  1.01840E+03  2.773E+00  4.020E+01  4.097E+00 -1.654E-01
   1   13    4     8     3    1.4483E+02 -3.7760E+00   1.4861E+02  0.000E+00  0.000E+00  0.000E+00  1.01217E+03  2.794E+00  4.051E+01  4.128E+00 -3.049E-01
   1   13    3     8     4    1.4861E+02 -4.0286E+00   1.5264E+02  0.000E+00  0.000E+00  0.000E+00  1.00595E+03  2.821E+00  4.091E+01  4.169E+00 -3.221E-01
   1   13    2     8     5    1.5264E+02 -2.0780E+00   1.5471E+02  0.000E+00  0.000E+00  0.000E+00  9.99718E+02  2.843E+00  4.122E+01  4.200E+00 -1.649E-01
   1   13    1     8     6    1.5471E+02 -5.6638E-01   1.5528E+02  0.000E+00  0.000E+00  0.000E+00  9.94727E+02  2.852E+00  4.135E+01  2.528E+00 -7.468E-02



1
  VOLUMETRIC BUDGET FOR ENTIRE MODEL AT END OF TIME STEP 10 IN STRESS PERIOD   8
  ------------------------------------------------------------------------------

     CUMULATIVE VOLUMES      L**3       RATES FOR THIS TIME STEP      L**3/T
     ------------------                 ------------------------

           IN:                                      IN:
           ---                                      ---
             STORAGE =    70253064.0000               STORAGE =           1.8980
       CONSTANT HEAD =           0.0000         CONSTANT HEAD =           0.0000
               WELLS =           0.0000                 WELLS =           0.0000
     HEAD DEP BOUNDS =     4117919.0000       HEAD DEP BOUNDS =           0.2090
        UZF RECHARGE =   263530720.0000          UZF RECHARGE =          11.4533
               GW ET =           0.0000                 GW ET =           0.0000
     SURFACE LEAKAGE =           0.0000       SURFACE LEAKAGE =           0.0000
      STREAM LEAKAGE =   850526592.0000        STREAM LEAKAGE =          43.0062

            TOTAL IN =  1188428288.0000              TOTAL IN =          56.5665

          OUT:                                     OUT:
          ----                                     ----
             STORAGE =   294121152.0000               STORAGE =          24.8956
       CONSTANT HEAD =           0.0000         CONSTANT HEAD =           0.0000
               WELLS =   289079936.0000                 WELLS =           0.0000
     HEAD DEP BOUNDS =     5195690.0000       HEAD DEP BOUNDS =           0.2641
        UZF RECHARGE =           0.0000          UZF RECHARGE =           0.0000
               GW ET =   333920672.0000                 GW ET =          18.0749
     SURFACE LEAKAGE =           0.0000       SURFACE LEAKAGE =           0.0000
      STREAM LEAKAGE =   265899424.0000        STREAM LEAKAGE =          13.2869

           TOTAL OUT =  1188216832.0000             TOTAL OUT =          56.5215

            IN - OUT =      211456.0000              IN - OUT =       4.4998E-02

 PERCENT DISCREPANCY =           0.02     PERCENT DISCREPANCY =           0.08






          TIME SUMMARY AT END OF TIME STEP  10 IN STRESS PERIOD    8
                    SECONDS     MINUTES      HOURS       DAYS        YEARS
                    -----------------------------------------------------------
   TIME STEP LENGTH 1.95033E+05  3250.6      54.176      2.2573     6.18023E-03
 STRESS PERIOD TIME 1.31823E+06  21971.      366.18      15.257     4.17723E-02
         TOTAL TIME 1.97142E+07 3.28570E+05  5476.2      228.17     0.62471    
1
 
 SOLVING FOR HEAD 
     7 ITERATIONS FOR TIME STEP  11 IN STRESS PERIOD    8

 MAXIMUM HEAD CHANGE FOR EACH ITERATION:

    HEAD CHANGE   HEAD CHANGE   HEAD CHANGE   HEAD CHANGE   HEAD CHANGE
  LAYER,ROW,COL LAYER,ROW,COL LAYER,ROW,COL LAYER,ROW,COL LAYER,ROW,COL
 ----------------------------------------------------------------------
     0.5292E-01    0.1772E-01    0.5870E-02    0.1968E-02    0.6579E-03
  (  1,  8,  4) (  1,  8,  4) (  1,  8,  4) (  1,  8,  4) (  1,  8,  4)
     0.2602E-03    0.1147E-03
  (  1,  8,  4) (  1,  2,  7)


 NO OUTPUT CONTROL FOR STRESS PERIOD    8   TIME STEP  11
 
 SOLVING FOR HEAD 
     7 ITERATIONS FOR TIME STEP  12 IN STRESS PERIOD    8

 MAXIMUM HEAD CHANGE FOR EACH ITERATION:

    HEAD CHANGE   HEAD CHANGE   HEAD CHANGE   HEAD CHANGE   HEAD CHANGE
  LAYER,ROW,COL LAYER,ROW,COL LAYER,ROW,COL LAYER,ROW,COL LAYER,ROW,COL
 ----------------------------------------------------------------------
     0.5715E-01    0.1913E-01    0.6377E-02    0.2095E-02    0.7046E-03
  (  1,  8,  4) (  1,  8,  4) (  1,  8,  4) (  1,  7,  4) (  1,  8,  4)
     0.2816E-03    0.1078E-03
  (  1,  8,  4) (  1,  2,  6)


 NO OUTPUT CONTROL FOR STRESS PERIOD    8   TIME STEP  12
 
 SOLVING FOR HEAD 
     7 ITERATIONS FOR TIME STEP  13 IN STRESS PERIOD    8

 MAXIMUM HEAD CHANGE FOR EACH ITERATION:

    HEAD CHANGE   HEAD CHANGE   HEAD CHANGE   HEAD CHANGE   HEAD CHANGE
  LAYER,ROW,COL LAYER,ROW,COL LAYER,ROW,COL LAYER,ROW,COL LAYER,ROW,COL
 ----------------------------------------------------------------------
     0.6169E-01    0.2064E-01    0.6853E-02    0.2324E-02    0.7516E-03
  (  1,  8,  4) (  1,  8,  4) (  1,  8,  4) (  1,  8,  4) (  1,  7,  4)
     0.2950E-03    0.1215E-03
  (  1,  8,  4) (  1,  9,  4)


 NO OUTPUT CONTROL FOR STRESS PERIOD    8   TIME STEP  13
 
 SOLVING FOR HEAD 
     7 ITERATIONS FOR TIME STEP  14 IN STRESS PERIOD    8

 MAXIMUM HEAD CHANGE FOR EACH ITERATION:

    HEAD CHANGE   HEAD CHANGE   HEAD CHANGE   HEAD CHANGE   HEAD CHANGE
  LAYER,ROW,COL LAYER,ROW,COL LAYER,ROW,COL LAYER,ROW,COL LAYER,ROW,COL
 ----------------------------------------------------------------------
     0.6622E-01    0.2211E-01    0.7404E-02    0.2452E-02    0.8368E-03
  (  1,  8,  4) (  1,  8,  4) (  1,  8,  4) (  1,  8,  4) (  1,  8,  4)
     0.2561E-03    0.1274E-03
  (  1,  8,  4) (  1,  7,  4)


 NO OUTPUT CONTROL FOR STRESS PERIOD    8   TIME STEP  14
 
 SOLVING FOR HEAD 
     7 ITERATIONS FOR TIME STEP  15 IN STRESS PERIOD    8

 MAXIMUM HEAD CHANGE FOR EACH ITERATION:

    HEAD CHANGE   HEAD CHANGE   HEAD CHANGE   HEAD CHANGE   HEAD CHANGE
  LAYER,ROW,COL LAYER,ROW,COL LAYER,ROW,COL LAYER,ROW,COL LAYER,ROW,COL
 ----------------------------------------------------------------------
     0.7093E-01    0.2374E-01    0.7849E-02    0.2626E-02    0.9058E-03
  (  1,  8,  4) (  1,  8,  4) (  1,  8,  4) (  1,  8,  4) (  1,  8,  4)
     0.3361E-03    0.1099E-03
  (  1,  9,  4) (  1,  2,  7)


 OUTPUT CONTROL FOR STRESS PERIOD    8   TIME STEP  15
    PRINT BUDGET
    PRINT HEAD FOR ALL LAYERS
    SAVE HEAD FOR ALL LAYERS
    SAVE BUDGET

  HEAD DEP BOUNDS   PERIOD    8   STEP  15
 BOUNDARY      1   LAYER   1   ROW    13   COL     1   RATE   -0.263840    
 BOUNDARY      2   LAYER   1   ROW    14   COL     9   RATE    0.208960    
 UBDSV3 SAVING "           GW ET" ON UNIT  61 AT TIME STEP 15, STRESS PERIOD   8
 UBDSV3 SAVING "    UZF RECHARGE" ON UNIT  61 AT TIME STEP 15, STRESS PERIOD   8
 UBDSV3 SAVING " SURFACE LEAKAGE" ON UNIT  61 AT TIME STEP 15, STRESS PERIOD   8


UNSATURATED ZONE PACKAGE VOLUMETRIC BUDGET FOR  TIME STEP   15 STRESS PERIOD    8
  ------------------------------------------------------------------------------



     CUMULATIVE VOLUMES      L**3       RATES FOR THIS TIME STEP      L**3/T
     ------------------                 ------------------------

           IN:                                      IN:
           ---                                      ---
        INFILTRATION =  1380882489.5186          INFILTRATION =          42.3750

          OUT:                                     OUT:
          ----                                     ----
              UZF ET =  1616968922.4716                UZF ET =          66.7388
        UZF RECHARGE =   278093974.4278          UZF RECHARGE =          10.9669

            IN - OUT =  -514180407.3808              IN - OUT =         -35.3307

          STORAGE:                                 STORAGE:
          --------                                 --------
      STORAGE CHANGE =  -513977295.4433        STORAGE CHANGE =         -35.3286

 PERCENT DISCREPANCY IS DIFFERENCE BETWEEN IN-OUT MINUS CHANGE IN STORAGE
 DIVIDED BY THE AVERAGE OF IN AND OUT TIMES 100

 PERCENT DISCREPANCY =           0.00     PERCENT DISCREPANCY =           0.00









 STREAM LISTING     PERIOD      8   STEP       15

 LAYER ROW COL. STREAM  RCH.  FLOW INTO     FLOW TO   FLOW OUT OF   OVRLND.     DIRECT     STREAM       STREAM     STREAM     STREAM   STREAMBED  STREAMBED
                SEG.NO.  NO.  STRM. RCH.    AQUIFER    STRM. RCH.    RUNOFF     PRECIP       ET          HEAD       DEPTH      WIDTH   CONDCTNC.   GRADIENT

   1    1    1     1     1    2.5000E+01  1.0531E+00   2.3947E+01  0.000E+00  0.000E+00  0.000E+00  1.09422E+03  1.172E+00  1.296E+01  5.831E-01  6.021E-01
   1    2    2     1     2    2.3947E+01  3.0655E+00   2.0881E+01  0.000E+00  0.000E+00  0.000E+00  1.08920E+03  1.140E+00  1.253E+01  8.772E-01  1.165E+00
   1    3    3     1     3    2.0881E+01  2.9033E+00   1.7978E+01  0.000E+00  0.000E+00  0.000E+00  1.08351E+03  1.091E+00  1.183E+01  7.097E-01  1.364E+00
   1    3    4     1     4    1.7978E+01  2.4660E+00   1.5512E+01  0.000E+00  0.000E+00  0.000E+00  1.07845E+03  1.045E+00  1.099E+01  6.097E-01  1.348E+00
   1    4    5     2     1    5.5120E+00  2.6621E+00   2.8499E+00  0.000E+00  0.000E+00  0.000E+00  1.07235E+03  4.130E-01  1.200E+01  7.800E-01  1.138E+00
   1    5    6     2     2    2.8499E+00  1.9531E+00   8.9684E-01  0.000E+00  0.000E+00  0.000E+00  1.06676E+03  2.551E-01  1.200E+01  6.000E-01  1.085E+00
   1    6    6     2     3    8.9684E-01  8.9684E-01   0.0000E+00  0.000E+00  0.000E+00  0.000E+00  1.06183E+03  3.689E-02  1.200E+01  6.000E-01  1.012E+00
   1    7    6     2     4    0.0000E+00  0.0000E+00   0.0000E+00  0.000E+00  0.000E+00  0.000E+00  1.05708E+03  0.000E+00  1.200E+01  6.000E-01  1.000E+00
   1    8    6     2     5    0.0000E+00  0.0000E+00   0.0000E+00  0.000E+00  0.000E+00  0.000E+00  1.05236E+03  0.000E+00  1.200E+01  6.000E-01  1.000E+00
   1    3    5     3     1    1.0000E+01  2.8252E+00   7.1748E+00  0.000E+00  0.000E+00  0.000E+00  1.07555E+03  1.909E+00  9.636E+00  7.227E-01  1.955E+00
   1    3    6     3     2    7.1748E+00  1.7688E+00   5.4060E+00  0.000E+00  0.000E+00  0.000E+00  1.07264E+03  1.727E+00  8.909E+00  6.682E-01  1.324E+00
   1    3    7     3     3    5.4060E+00  8.1278E-01   4.5932E+00  0.000E+00  0.000E+00  0.000E+00  1.06987E+03  1.555E+00  8.218E+00  5.547E-01  7.326E-01
   1    4    8     3     4    4.5932E+00  1.5261E+00   3.0672E+00  0.000E+00  0.000E+00  0.000E+00  1.06682E+03  1.364E+00  7.455E+00  6.709E-01  1.137E+00
   1    5    8     3     5    3.0672E+00  1.5790E+00   1.4882E+00  0.000E+00  0.000E+00  0.000E+00  1.06362E+03  1.164E+00  6.655E+00  4.991E-01  1.582E+00
   1    6    8     3     6    1.4882E+00  5.5980E-01   9.2839E-01  0.000E+00  0.000E+00  0.000E+00  1.06158E+03  1.036E+00  6.145E+00  1.844E-01  1.518E+00
   1    5   10     4     1    1.0000E+01  9.0525E-01   9.0947E+00  0.000E+00  0.000E+00  0.000E+00  1.07835E+03  6.210E-01  1.000E+01  2.500E-01  1.207E+00
   1    5    9     4     2    9.0947E+00  1.7835E+00   7.3113E+00  0.000E+00  0.000E+00  0.000E+00  1.07148E+03  5.670E-01  1.000E+01  5.000E-01  1.189E+00
   1    6    8     4     3    7.3113E+00  1.2257E+00   6.0855E+00  0.000E+00  0.000E+00  0.000E+00  1.06368E+03  5.021E-01  1.000E+01  3.500E-01  1.167E+00
   1    6    8     5     1    7.0139E+00  9.2135E-01   6.0926E+00  0.000E+00  0.000E+00  0.000E+00  1.05858E+03  5.793E-01  1.174E+01  4.696E-01  6.540E-01
   1    7    7     5     2    6.0926E+00  1.8036E+00   4.2890E+00  0.000E+00  0.000E+00  0.000E+00  1.05403E+03  5.339E-01  1.021E+01  5.104E-01  1.178E+00
   1    8    7     5     3    4.2890E+00  1.0264E+00   3.2625E+00  0.000E+00  0.000E+00  0.000E+00  1.04973E+03  4.776E-01  8.433E+00  2.952E-01  1.159E+00
   1    8    6     5     4    3.2625E+00  6.2508E-01   2.6374E+00  0.000E+00  0.000E+00  0.000E+00  1.04669E+03  4.381E-01  7.272E+00  1.818E-01  1.146E+00
   1    9    6     6     1    2.6374E+00  1.9442E+00   6.9322E-01  0.000E+00  0.000E+00  0.000E+00  1.04297E+03  2.404E-01  1.200E+01  6.000E-01  1.080E+00
   1   10    7     6     2    6.9322E-01  6.9322E-01   0.0000E+00  0.000E+00  0.000E+00  0.000E+00  1.03821E+03  3.197E-02  1.200E+01  6.000E-01  1.011E+00
   1   11    7     6     3    0.0000E+00  0.0000E+00   0.0000E+00  0.000E+00  0.000E+00  0.000E+00  1.03364E+03  0.000E+00  1.200E+01  6.000E-01  1.000E+00
   1   12    7     6     4    0.0000E+00  0.0000E+00   0.0000E+00  0.000E+00  0.000E+00  0.000E+00  1.02909E+03  0.000E+00  1.200E+01  6.000E-01  2.783E-01
   1   13    7     6     5    0.0000E+00 -8.0190E-01   8.0190E-01  0.000E+00  0.000E+00  0.000E+00  1.02591E+03  0.000E+00  1.200E+01  2.400E-01 -1.114E+00
   1   14    9     7     1    1.5000E+02  2.0436E+00   1.4796E+02  0.000E+00  0.000E+00  0.000E+00  1.03987E+03  2.286E+00  5.529E+01  5.592E+00  1.218E-01
   1   13    8     7     2    1.4796E+02  2.9968E+00   1.4496E+02  0.000E+00  0.000E+00  0.000E+00  1.03477E+03  2.272E+00  5.523E+01  6.144E+00  1.626E-01
   1   13    7     7     3    1.4496E+02  2.3820E+00   1.4258E+02  0.000E+00  0.000E+00  0.000E+00  1.02968E+03  2.258E+00  5.516E+01  5.578E+00  1.423E-01
   1   13    6     8     1    1.4338E+02  7.0013E-01   1.4268E+02  0.000E+00  0.000E+00  0.000E+00  1.02464E+03  2.767E+00  4.012E+01  4.089E+00  5.708E-02
   1   13    5     8     2    1.4268E+02 -2.0855E+00   1.4476E+02  0.000E+00  0.000E+00  0.000E+00  1.01840E+03  2.772E+00  4.019E+01  4.096E+00 -1.697E-01
   1   13    4     8     3    1.4476E+02 -3.8168E+00   1.4858E+02  0.000E+00  0.000E+00  0.000E+00  1.01217E+03  2.793E+00  4.050E+01  4.127E+00 -3.083E-01
   1   13    3     8     4    1.4858E+02 -4.0780E+00   1.5266E+02  0.000E+00  0.000E+00  0.000E+00  1.00595E+03  2.821E+00  4.091E+01  4.169E+00 -3.261E-01
   1   13    2     8     5    1.5266E+02 -2.0790E+00   1.5474E+02  0.000E+00  0.000E+00  0.000E+00  9.99718E+02  2.843E+00  4.122E+01  4.200E+00 -1.650E-01
   1   13    1     8     6    1.5474E+02 -5.4706E-01   1.5529E+02  0.000E+00  0.000E+00  0.000E+00  9.94727E+02  2.852E+00  4.135E+01  2.528E+00 -7.213E-02



1
              HEAD IN LAYER   1 AT END OF TIME STEP  15 IN STRESS PERIOD    8
  ---------------------------------------------------------------------------

           1       2       3       4       5       6       7       8       9      10
 ...................................................................................
   1  1092.41 1088.66 6999.00 6999.00 6999.00 6999.00 6999.00 6999.00 6999.00 6999.00
   2  1089.09 1085.70 1079.24 6999.00 6999.00 1074.03 1072.98 1070.69 6999.00 6999.00
   3  6999.00 1077.39 1074.45 1070.33 1071.24 1069.99 1068.41 1068.08 6999.00 6999.00
   4  1067.85 1068.44 1066.81 1063.36 1062.24 1060.97 1061.70 1064.54 1063.86 6999.00
   5  1063.70 1061.37 1058.88 1057.02 1056.77 1057.36 1057.28 1059.43 1062.93 1065.35
   6  1059.02 1055.46 1052.52 1051.13 1051.44 1052.80 1054.15 1056.62 1059.44 1063.69
   7  1055.36 1049.80 1046.70 1045.56 1046.20 1047.86 1050.39 1052.83 1054.20 6999.00
   8  6999.00 1042.46 1040.65 1040.02 1040.92 1042.79 1044.70 1047.25 1049.18 6999.00
   9  6999.00 1035.51 1034.65 1034.65 1035.86 1037.90 1038.90 1040.80 1043.76 6999.00
  10  6999.00 1028.46 1028.65 1029.66 1031.11 1032.92 1034.35 1036.31 1040.04 1044.39
  11  6999.00 1019.68 1021.28 1024.72 1026.78 1028.92 1030.51 1032.86 1036.31 6999.00
  12  1001.19 1008.85 1014.06 1018.88 1022.53 1025.81 1028.26 1031.10 1034.88 6999.00
  13   994.94 1000.21 1006.92 1013.09 1018.91 1024.47 1029.25 1034.28 1036.40 6999.00
  14  6999.00 1005.83 1011.52 1016.24 1021.27 1025.99 1030.27 1035.29 1039.50 6999.00
  15  6999.00 6999.00 1018.84 1021.83 1025.57 1028.54 6999.00 6999.00 6999.00 6999.00

 HEAD WILL BE SAVED ON UNIT   58 AT END OF TIME STEP  15, STRESS PERIOD    8
1
  VOLUMETRIC BUDGET FOR ENTIRE MODEL AT END OF TIME STEP 15 IN STRESS PERIOD   8
  ------------------------------------------------------------------------------

     CUMULATIVE VOLUMES      L**3       RATES FOR THIS TIME STEP      L**3/T
     ------------------                 ------------------------

           IN:                                      IN:
           ---                                      ---
             STORAGE =    72195160.0000               STORAGE =           1.1260
       CONSTANT HEAD =           0.0000         CONSTANT HEAD =           0.0000
               WELLS =           0.0000                 WELLS =           0.0000
     HEAD DEP BOUNDS =     4391607.0000       HEAD DEP BOUNDS =           0.2090
        UZF RECHARGE =   278094080.0000          UZF RECHARGE =          10.9669
               GW ET =           0.0000                 GW ET =           0.0000
     SURFACE LEAKAGE =           0.0000       SURFACE LEAKAGE =           0.0000
      STREAM LEAKAGE =   906954432.0000        STREAM LEAKAGE =          43.1226

            TOTAL IN =  1261635328.0000              TOTAL IN =          55.4244

          OUT:                                     OUT:
          ----                                     ----
             STORAGE =   325804096.0000               STORAGE =          23.7187
       CONSTANT HEAD =           0.0000         CONSTANT HEAD =           0.0000
               WELLS =   289079936.0000                 WELLS =           0.0000
     HEAD DEP BOUNDS =     5541420.0000       HEAD DEP BOUNDS =           0.2638
        UZF RECHARGE =           0.0000          UZF RECHARGE =           0.0000
               GW ET =   357583136.0000                 GW ET =          18.0663
     SURFACE LEAKAGE =           0.0000       SURFACE LEAKAGE =           0.0000
      STREAM LEAKAGE =   283415104.0000        STREAM LEAKAGE =          13.4082

           TOTAL OUT =  1261423616.0000             TOTAL OUT =          55.4570

            IN - OUT =      211712.0000              IN - OUT =      -3.2562E-02

 PERCENT DISCREPANCY =           0.02     PERCENT DISCREPANCY =          -0.06






          TIME SUMMARY AT END OF TIME STEP  15 IN STRESS PERIOD    8
                    SECONDS     MINUTES      HOURS       DAYS        YEARS
                    -----------------------------------------------------------
   TIME STEP LENGTH 3.14103E+05  5235.0      87.251      3.6354     9.95332E-03
 STRESS PERIOD TIME 2.62800E+06  43800.      730.00      30.417     8.32763E-02
         TOTAL TIME 2.10240E+07 3.50400E+05  5840.0      243.33     0.66621    
1
1
                            STRESS PERIOD NO.    9, LENGTH =   2628000.    
                            -----------------------------------------------

                              NUMBER OF TIME STEPS =    15

                               MULTIPLIER FOR DELT =     1.100

                            INITIAL TIME STEP SIZE =   82713.07    

 WELL NO.  LAYER   ROW   COL   STRESS RATE         
 --------------------------------------------------
      1      1      6      4      -1.000    
      2      1      6      5      -1.000    
      3      1      7      4      -1.000    
      4      1      7      5      -1.000    
      5      1      8      4      -1.000    
      6      1      8      5      -1.000    
      7      1      9      4      -1.000    
      8      1      9      5      -1.000    
      9      1     10      4      -1.000    
     10      1     10      5      -1.000    

     10 WELLS

 REUSING NON-PARAMETER GHB CELLS FROM LAST STRESS PERIOD

      2 GHB CELLS

 REUSING STREAM SEGMENT DATA FROM LAST STRESS PERIOD



            AREAL INFILTRATION RATE
 READING ON UNIT   19 WITH FORMAT: (10F4.0)            

            1           2           3           4           5           6           7           8           9          10
 ........................................................................................................................
   1   3.0000E-09  6.0000E-09   0.000       0.000       0.000       0.000       0.000       0.000       0.000       0.000    
   2   6.0000E-09  3.0000E-09  6.0000E-09   0.000       0.000      2.4000E-08  2.4000E-08  1.5000E-08   0.000       0.000    
   3    0.000      1.5000E-08  3.0000E-09  3.0000E-09  2.4000E-08  2.4000E-08  1.5000E-08  1.5000E-08   0.000       0.000    
   4   2.4000E-08  1.5000E-08  3.0000E-09  3.0000E-09  3.0000E-09  3.0000E-09  3.0000E-09  3.0000E-09  6.0000E-09   0.000    
   5   2.4000E-08  1.5000E-08  3.0000E-09  3.0000E-09  3.0000E-09  3.0000E-09  3.0000E-09  3.0000E-09  3.0000E-09  3.0000E-09
   6   2.4000E-08  1.5000E-08  1.5000E-08  6.0000E-09  6.0000E-09  3.0000E-09  3.0000E-09  3.0000E-09  3.0000E-09  1.5000E-08
   7   2.4000E-08  1.5000E-08  1.5000E-08  6.0000E-09  6.0000E-09  3.0000E-09  3.0000E-09  6.0000E-09  6.0000E-09   0.000    
   8    0.000      1.5000E-08  1.5000E-08  6.0000E-09  6.0000E-09  3.0000E-09  3.0000E-09  6.0000E-09  1.5000E-08   0.000    
   9    0.000      1.5000E-08  1.5000E-08  6.0000E-09  6.0000E-09  3.0000E-09  3.0000E-09  6.0000E-09  1.5000E-08   0.000    
  10    0.000      1.5000E-08  1.5000E-08  6.0000E-09  6.0000E-09  3.0000E-09  3.0000E-09  6.0000E-09  1.5000E-08  2.4000E-08
  11    0.000      3.0000E-09  3.0000E-09  3.0000E-09  3.0000E-09  3.0000E-09  3.0000E-09  6.0000E-09  1.5000E-08   0.000    
  12   3.0000E-09  3.0000E-09  3.0000E-09  3.0000E-09  3.0000E-09  3.0000E-09  3.0000E-09  3.0000E-09  6.0000E-09   0.000    
  13   3.0000E-09  3.0000E-09  6.0000E-09  6.0000E-09  6.0000E-09  6.0000E-09  6.0000E-09  3.0000E-09  3.0000E-09   0.000    
  14    0.000      6.0000E-09  1.5000E-08  1.5000E-08  1.5000E-08  1.5000E-08  1.5000E-08  6.0000E-09  3.0000E-09   0.000    
  15    0.000       0.000      2.4000E-08  2.4000E-08  2.4000E-08  2.4000E-08   0.000       0.000       0.000       0.000    

USING ET RATE FROM PREVIOUS STRESS PERIOD. CURRENT PERIOD IS:       9

 USING ET EXTINCTION DEPTH FROM PREVIOUS STRESS PERIOD. CURRENT PERIOD IS:       9

 USING EXTINCTION WATER CONTENT FROM PREVIOUS STRESS PERIOD. CURRENT PERIOD IS:       9
 
 SOLVING FOR HEAD 

     5 ITERATIONS FOR TIME STEP   1 IN STRESS PERIOD    9

 MAXIMUM HEAD CHANGE FOR EACH ITERATION:

    HEAD CHANGE   HEAD CHANGE   HEAD CHANGE   HEAD CHANGE   HEAD CHANGE
  LAYER,ROW,COL LAYER,ROW,COL LAYER,ROW,COL LAYER,ROW,COL LAYER,ROW,COL
 ----------------------------------------------------------------------
    -0.7701E-02   -0.2642E-02    0.1024E-02    0.4029E-03    0.1797E-03
  (  1,  3,  5) (  1,  3,  5) (  1,  3,  6) (  1,  3,  6) (  1,  3,  6)


 NO OUTPUT CONTROL FOR STRESS PERIOD    9   TIME STEP   1
 
 SOLVING FOR HEAD 
     6 ITERATIONS FOR TIME STEP   2 IN STRESS PERIOD    9

 MAXIMUM HEAD CHANGE FOR EACH ITERATION:

    HEAD CHANGE   HEAD CHANGE   HEAD CHANGE   HEAD CHANGE   HEAD CHANGE
  LAYER,ROW,COL LAYER,ROW,COL LAYER,ROW,COL LAYER,ROW,COL LAYER,ROW,COL
 ----------------------------------------------------------------------
    -0.8262E-02   -0.2800E-02    0.1065E-02    0.4835E-03    0.2600E-03
  (  1,  3,  5) (  1,  3,  5) (  1,  3,  6) (  1,  3,  6) (  1,  3,  6)
     0.1063E-03
  (  1,  3,  6)


 NO OUTPUT CONTROL FOR STRESS PERIOD    9   TIME STEP   2
 
 SOLVING FOR HEAD 
     6 ITERATIONS FOR TIME STEP   3 IN STRESS PERIOD    9

 MAXIMUM HEAD CHANGE FOR EACH ITERATION:

    HEAD CHANGE   HEAD CHANGE   HEAD CHANGE   HEAD CHANGE   HEAD CHANGE
  LAYER,ROW,COL LAYER,ROW,COL LAYER,ROW,COL LAYER,ROW,COL LAYER,ROW,COL
 ----------------------------------------------------------------------
    -0.8637E-02   -0.2986E-02   -0.9949E-03    0.4952E-03    0.2174E-03
  (  1,  3,  5) (  1,  3,  5) (  1,  3,  5) (  1,  3,  6) (  1,  3,  6)
     0.1027E-03
  (  1,  3,  6)


 NO OUTPUT CONTROL FOR STRESS PERIOD    9   TIME STEP   3
 
 SOLVING FOR HEAD 
     6 ITERATIONS FOR TIME STEP   4 IN STRESS PERIOD    9

 MAXIMUM HEAD CHANGE FOR EACH ITERATION:

    HEAD CHANGE   HEAD CHANGE   HEAD CHANGE   HEAD CHANGE   HEAD CHANGE
  LAYER,ROW,COL LAYER,ROW,COL LAYER,ROW,COL LAYER,ROW,COL LAYER,ROW,COL
 ----------------------------------------------------------------------
    -0.9216E-02   -0.3150E-02    0.1142E-02    0.5546E-03    0.2405E-03
  (  1,  3,  5) (  1,  3,  5) (  1,  3,  6) (  1,  3,  6) (  1,  3,  6)
     0.1133E-03
  (  1,  3,  6)


 NO OUTPUT CONTROL FOR STRESS PERIOD    9   TIME STEP   4
 
 SOLVING FOR HEAD 
     8 ITERATIONS FOR TIME STEP   5 IN STRESS PERIOD    9

 MAXIMUM HEAD CHANGE FOR EACH ITERATION:

    HEAD CHANGE   HEAD CHANGE   HEAD CHANGE   HEAD CHANGE   HEAD CHANGE
  LAYER,ROW,COL LAYER,ROW,COL LAYER,ROW,COL LAYER,ROW,COL LAYER,ROW,COL
 ----------------------------------------------------------------------
     0.1779E-01    0.9126E-02    0.4684E-02    0.2441E-02    0.1241E-02
  (  1,  4,  1) (  1,  4,  1) (  1,  4,  1) (  1,  4,  1) (  1,  4,  1)
     0.6242E-03    0.3505E-03    0.1453E-03
  (  1,  4,  1) (  1,  4,  1) (  1,  4,  1)


 OUTPUT CONTROL FOR STRESS PERIOD    9   TIME STEP   5
    PRINT BUDGET
    SAVE BUDGET

            WELLS   PERIOD    9   STEP   5
 WELL      1   LAYER   1   ROW     6   COL     4   RATE    -1.00000    
 WELL      2   LAYER   1   ROW     6   COL     5   RATE    -1.00000    
 WELL      3   LAYER   1   ROW     7   COL     4   RATE    -1.00000    
 WELL      4   LAYER   1   ROW     7   COL     5   RATE    -1.00000    
 WELL      5   LAYER   1   ROW     8   COL     4   RATE    -1.00000    
 WELL      6   LAYER   1   ROW     8   COL     5   RATE    -1.00000    
 WELL      7   LAYER   1   ROW     9   COL     4   RATE    -1.00000    
 WELL      8   LAYER   1   ROW     9   COL     5   RATE    -1.00000    
 WELL      9   LAYER   1   ROW    10   COL     4   RATE    -1.00000    
 WELL     10   LAYER   1   ROW    10   COL     5   RATE    -1.00000    

  HEAD DEP BOUNDS   PERIOD    9   STEP   5
 BOUNDARY      1   LAYER   1   ROW    13   COL     1   RATE   -0.263722    
 BOUNDARY      2   LAYER   1   ROW    14   COL     9   RATE    0.208949    
 UBDSV3 SAVING "           GW ET" ON UNIT  61 AT TIME STEP  5, STRESS PERIOD   9
 UBDSV3 SAVING "    UZF RECHARGE" ON UNIT  61 AT TIME STEP  5, STRESS PERIOD   9
 UBDSV3 SAVING " SURFACE LEAKAGE" ON UNIT  61 AT TIME STEP  5, STRESS PERIOD   9


UNSATURATED ZONE PACKAGE VOLUMETRIC BUDGET FOR  TIME STEP    5 STRESS PERIOD    9
  ------------------------------------------------------------------------------



     CUMULATIVE VOLUMES      L**3       RATES FOR THIS TIME STEP      L**3/T
     ------------------                 ------------------------

           IN:                                      IN:
           ---                                      ---
        INFILTRATION =  1393721391.8525          INFILTRATION =          25.4250

          OUT:                                     OUT:
          ----                                     ----
              UZF ET =  1650699502.6337                UZF ET =          66.8207
        UZF RECHARGE =   282944638.9027          UZF RECHARGE =          10.3555

            IN - OUT =  -539922749.6838              IN - OUT =         -51.7512

          STORAGE:                                 STORAGE:
          --------                                 --------
      STORAGE CHANGE =  -539719421.2733        STORAGE CHANGE =         -51.7497

 PERCENT DISCREPANCY IS DIFFERENCE BETWEEN IN-OUT MINUS CHANGE IN STORAGE
 DIVIDED BY THE AVERAGE OF IN AND OUT TIMES 100

 PERCENT DISCREPANCY =           0.00     PERCENT DISCREPANCY =           0.00









 STREAM LISTING     PERIOD      9   STEP        5

 LAYER ROW COL. STREAM  RCH.  FLOW INTO     FLOW TO   FLOW OUT OF   OVRLND.     DIRECT     STREAM       STREAM     STREAM     STREAM   STREAMBED  STREAMBED
                SEG.NO.  NO.  STRM. RCH.    AQUIFER    STRM. RCH.    RUNOFF     PRECIP       ET          HEAD       DEPTH      WIDTH   CONDCTNC.   GRADIENT

   1    1    1     1     1    2.5000E+01  1.0545E+00   2.3945E+01  0.000E+00  0.000E+00  0.000E+00  1.09422E+03  1.172E+00  1.296E+01  5.831E-01  6.029E-01
   1    2    2     1     2    2.3945E+01  3.0654E+00   2.0880E+01  0.000E+00  0.000E+00  0.000E+00  1.08920E+03  1.140E+00  1.253E+01  8.772E-01  1.165E+00
   1    3    3     1     3    2.0880E+01  2.9032E+00   1.7977E+01  0.000E+00  0.000E+00  0.000E+00  1.08351E+03  1.091E+00  1.183E+01  7.097E-01  1.364E+00
   1    3    4     1     4    1.7977E+01  2.4659E+00   1.5511E+01  0.000E+00  0.000E+00  0.000E+00  1.07845E+03  1.045E+00  1.098E+01  6.096E-01  1.348E+00
   1    4    5     2     1    5.5109E+00  2.6621E+00   2.8488E+00  0.000E+00  0.000E+00  0.000E+00  1.07235E+03  4.129E-01  1.200E+01  7.800E-01  1.138E+00
   1    5    6     2     2    2.8488E+00  1.9530E+00   8.9583E-01  0.000E+00  0.000E+00  0.000E+00  1.06676E+03  2.550E-01  1.200E+01  6.000E-01  1.085E+00
   1    6    6     2     3    8.9583E-01  8.9583E-01   0.0000E+00  0.000E+00  0.000E+00  0.000E+00  1.06183E+03  3.687E-02  1.200E+01  6.000E-01  1.012E+00
   1    7    6     2     4    0.0000E+00  0.0000E+00   0.0000E+00  0.000E+00  0.000E+00  0.000E+00  1.05708E+03  0.000E+00  1.200E+01  6.000E-01  1.000E+00
   1    8    6     2     5    0.0000E+00  0.0000E+00   0.0000E+00  0.000E+00  0.000E+00  0.000E+00  1.05236E+03  0.000E+00  1.200E+01  6.000E-01  1.000E+00
   1    3    5     3     1    1.0000E+01  2.8252E+00   7.1748E+00  0.000E+00  0.000E+00  0.000E+00  1.07555E+03  1.909E+00  9.636E+00  7.227E-01  1.955E+00
   1    3    6     3     2    7.1748E+00  1.7372E+00   5.4376E+00  0.000E+00  0.000E+00  0.000E+00  1.07264E+03  1.727E+00  8.909E+00  6.682E-01  1.300E+00
   1    3    7     3     3    5.4376E+00  8.1832E-01   4.6193E+00  0.000E+00  0.000E+00  0.000E+00  1.06987E+03  1.555E+00  8.218E+00  5.547E-01  7.376E-01
   1    4    8     3     4    4.6193E+00  1.5284E+00   3.0909E+00  0.000E+00  0.000E+00  0.000E+00  1.06682E+03  1.364E+00  7.455E+00  6.709E-01  1.139E+00
   1    5    8     3     5    3.0909E+00  1.5790E+00   1.5120E+00  0.000E+00  0.000E+00  0.000E+00  1.06362E+03  1.164E+00  6.655E+00  4.991E-01  1.582E+00
   1    6    8     3     6    1.5120E+00  5.5980E-01   9.5217E-01  0.000E+00  0.000E+00  0.000E+00  1.06158E+03  1.036E+00  6.145E+00  1.844E-01  1.518E+00
   1    5   10     4     1    1.0000E+01  9.0525E-01   9.0947E+00  0.000E+00  0.000E+00  0.000E+00  1.07835E+03  6.210E-01  1.000E+01  2.500E-01  1.207E+00
   1    5    9     4     2    9.0947E+00  1.7835E+00   7.3113E+00  0.000E+00  0.000E+00  0.000E+00  1.07148E+03  5.670E-01  1.000E+01  5.000E-01  1.189E+00
   1    6    8     4     3    7.3113E+00  1.2257E+00   6.0855E+00  0.000E+00  0.000E+00  0.000E+00  1.06368E+03  5.021E-01  1.000E+01  3.500E-01  1.167E+00
   1    6    8     5     1    7.0377E+00  9.2042E-01   6.1173E+00  0.000E+00  0.000E+00  0.000E+00  1.05858E+03  5.800E-01  1.177E+01  4.706E-01  6.519E-01
   1    7    7     5     2    6.1173E+00  1.8087E+00   4.3086E+00  0.000E+00  0.000E+00  0.000E+00  1.05403E+03  5.347E-01  1.023E+01  5.117E-01  1.178E+00
   1    8    7     5     3    4.3086E+00  1.0296E+00   3.2790E+00  0.000E+00  0.000E+00  0.000E+00  1.04973E+03  4.784E-01  8.457E+00  2.960E-01  1.159E+00
   1    8    6     5     4    3.2790E+00  6.2718E-01   2.6518E+00  0.000E+00  0.000E+00  0.000E+00  1.04669E+03  4.389E-01  7.295E+00  1.824E-01  1.146E+00
   1    9    6     6     1    2.6518E+00  1.9449E+00   7.0689E-01  0.000E+00  0.000E+00  0.000E+00  1.04297E+03  2.416E-01  1.200E+01  6.000E-01  1.081E+00
   1   10    7     6     2    7.0689E-01  7.0689E-01   0.0000E+00  0.000E+00  0.000E+00  0.000E+00  1.03821E+03  3.234E-02  1.200E+01  6.000E-01  1.011E+00
   1   11    7     6     3    0.0000E+00  0.0000E+00   0.0000E+00  0.000E+00  0.000E+00  0.000E+00  1.03364E+03  0.000E+00  1.200E+01  6.000E-01  1.000E+00
   1   12    7     6     4    0.0000E+00  0.0000E+00   0.0000E+00  0.000E+00  0.000E+00  0.000E+00  1.02909E+03  0.000E+00  1.200E+01  6.000E-01  2.773E-01
   1   13    7     6     5    0.0000E+00 -8.0109E-01   8.0109E-01  0.000E+00  0.000E+00  0.000E+00  1.02591E+03  0.000E+00  1.200E+01  2.400E-01 -1.113E+00
   1   14    9     7     1    1.5000E+02  2.0422E+00   1.4796E+02  0.000E+00  0.000E+00  0.000E+00  1.03987E+03  2.286E+00  5.529E+01  5.592E+00  1.217E-01
   1   13    8     7     2    1.4796E+02  2.9986E+00   1.4496E+02  0.000E+00  0.000E+00  0.000E+00  1.03477E+03  2.272E+00  5.523E+01  6.144E+00  1.627E-01
   1   13    7     7     3    1.4496E+02  2.4004E+00   1.4256E+02  0.000E+00  0.000E+00  0.000E+00  1.02968E+03  2.258E+00  5.516E+01  5.578E+00  1.434E-01
   1   13    6     8     1    1.4336E+02  7.1196E-01   1.4265E+02  0.000E+00  0.000E+00  0.000E+00  1.02464E+03  2.767E+00  4.012E+01  4.088E+00  5.805E-02
   1   13    5     8     2    1.4265E+02 -2.0946E+00   1.4474E+02  0.000E+00  0.000E+00  0.000E+00  1.01840E+03  2.772E+00  4.019E+01  4.096E+00 -1.705E-01
   1   13    4     8     3    1.4474E+02 -3.8264E+00   1.4857E+02  0.000E+00  0.000E+00  0.000E+00  1.01217E+03  2.793E+00  4.050E+01  4.127E+00 -3.090E-01
   1   13    3     8     4    1.4857E+02 -4.0851E+00   1.5265E+02  0.000E+00  0.000E+00  0.000E+00  1.00595E+03  2.821E+00  4.091E+01  4.169E+00 -3.267E-01
   1   13    2     8     5    1.5265E+02 -2.0795E+00   1.5473E+02  0.000E+00  0.000E+00  0.000E+00  9.99718E+02  2.843E+00  4.122E+01  4.200E+00 -1.650E-01
   1   13    1     8     6    1.5473E+02 -5.3934E-01   1.5527E+02  0.000E+00  0.000E+00  0.000E+00  9.94727E+02  2.852E+00  4.135E+01  2.528E+00 -7.111E-02



1
  VOLUMETRIC BUDGET FOR ENTIRE MODEL AT END OF TIME STEP  5 IN STRESS PERIOD   9
  ------------------------------------------------------------------------------

     CUMULATIVE VOLUMES      L**3       RATES FOR THIS TIME STEP      L**3/T
     ------------------                 ------------------------

           IN:                                      IN:
           ---                                      ---
             STORAGE =    72656272.0000               STORAGE =           0.7017
       CONSTANT HEAD =           0.0000         CONSTANT HEAD =           0.0000
               WELLS =           0.0000                 WELLS =           0.0000
     HEAD DEP BOUNDS =     4497122.5000       HEAD DEP BOUNDS =           0.2089
        UZF RECHARGE =   282944768.0000          UZF RECHARGE =          10.3555
               GW ET =           0.0000                 GW ET =           0.0000
     SURFACE LEAKAGE =           0.0000       SURFACE LEAKAGE =           0.0000
      STREAM LEAKAGE =   928740032.0000        STREAM LEAKAGE =          43.1531

            TOTAL IN =  1288838144.0000              TOTAL IN =          54.4193

          OUT:                                     OUT:
          ----                                     ----
             STORAGE =   331914784.0000               STORAGE =          12.6809
       CONSTANT HEAD =           0.0000         CONSTANT HEAD =           0.0000
               WELLS =   294129664.0000                 WELLS =          10.0000
     HEAD DEP BOUNDS =     5674615.0000       HEAD DEP BOUNDS =           0.2637
        UZF RECHARGE =           0.0000          UZF RECHARGE =           0.0000
               GW ET =   366706784.0000                 GW ET =          18.0719
     SURFACE LEAKAGE =           0.0000       SURFACE LEAKAGE =           0.0000
      STREAM LEAKAGE =   290191264.0000        STREAM LEAKAGE =          13.4261

           TOTAL OUT =  1288617088.0000             TOTAL OUT =          54.4427

            IN - OUT =      221056.0000              IN - OUT =      -2.3399E-02

 PERCENT DISCREPANCY =           0.02     PERCENT DISCREPANCY =          -0.04






          TIME SUMMARY AT END OF TIME STEP   5 IN STRESS PERIOD    9
                    SECONDS     MINUTES      HOURS       DAYS        YEARS
                    -----------------------------------------------------------
   TIME STEP LENGTH 1.21100E+05  2018.3      33.639      1.4016     3.83743E-03
 STRESS PERIOD TIME 5.04972E+05  8416.2      140.27      5.8446     1.60016E-02
         TOTAL TIME 2.15290E+07 3.58816E+05  5980.3      249.18     0.68221    
1
 
 SOLVING FOR HEAD 
     9 ITERATIONS FOR TIME STEP   6 IN STRESS PERIOD    9

 MAXIMUM HEAD CHANGE FOR EACH ITERATION:

    HEAD CHANGE   HEAD CHANGE   HEAD CHANGE   HEAD CHANGE   HEAD CHANGE
  LAYER,ROW,COL LAYER,ROW,COL LAYER,ROW,COL LAYER,ROW,COL LAYER,ROW,COL
 ----------------------------------------------------------------------
     0.3231E-01    0.1655E-01    0.8438E-02    0.4334E-02    0.2190E-02
  (  1,  4,  1) (  1,  4,  1) (  1,  4,  1) (  1,  4,  1) (  1,  4,  1)
     0.1100E-02    0.5507E-03    0.2755E-03    0.1378E-03
  (  1,  4,  1) (  1,  4,  1) (  1,  4,  1) (  1,  4,  1)


 NO OUTPUT CONTROL FOR STRESS PERIOD    9   TIME STEP   6
 
 SOLVING FOR HEAD 
     9 ITERATIONS FOR TIME STEP   7 IN STRESS PERIOD    9

 MAXIMUM HEAD CHANGE FOR EACH ITERATION:

    HEAD CHANGE   HEAD CHANGE   HEAD CHANGE   HEAD CHANGE   HEAD CHANGE
  LAYER,ROW,COL LAYER,ROW,COL LAYER,ROW,COL LAYER,ROW,COL LAYER,ROW,COL
 ----------------------------------------------------------------------
     0.3380E-01    0.1731E-01    0.8826E-02    0.4493E-02    0.2262E-02
  (  1,  4,  1) (  1,  4,  1) (  1,  4,  1) (  1,  4,  1) (  1,  4,  1)
     0.1180E-02    0.5996E-03    0.3017E-03    0.1513E-03
  (  1,  4,  1) (  1,  4,  1) (  1,  4,  1) (  1,  4,  1)


 NO OUTPUT CONTROL FOR STRESS PERIOD    9   TIME STEP   7
 
 SOLVING FOR HEAD 
     9 ITERATIONS FOR TIME STEP   8 IN STRESS PERIOD    9

 MAXIMUM HEAD CHANGE FOR EACH ITERATION:

    HEAD CHANGE   HEAD CHANGE   HEAD CHANGE   HEAD CHANGE   HEAD CHANGE
  LAYER,ROW,COL LAYER,ROW,COL LAYER,ROW,COL LAYER,ROW,COL LAYER,ROW,COL
 ----------------------------------------------------------------------
     0.3682E-01    0.1886E-01    0.9568E-02    0.4811E-02    0.2461E-02
  (  1,  4,  1) (  1,  4,  1) (  1,  4,  1) (  1,  4,  1) (  1,  4,  1)
     0.1192E-02    0.6380E-03    0.3274E-03    0.1654E-03
  (  1,  4,  1) (  1,  4,  1) (  1,  4,  1) (  1,  4,  1)


 NO OUTPUT CONTROL FOR STRESS PERIOD    9   TIME STEP   8
 
 SOLVING FOR HEAD 
     9 ITERATIONS FOR TIME STEP   9 IN STRESS PERIOD    9

 MAXIMUM HEAD CHANGE FOR EACH ITERATION:

    HEAD CHANGE   HEAD CHANGE   HEAD CHANGE   HEAD CHANGE   HEAD CHANGE
  LAYER,ROW,COL LAYER,ROW,COL LAYER,ROW,COL LAYER,ROW,COL LAYER,ROW,COL
 ----------------------------------------------------------------------
     0.3511E-01    0.1762E-01    0.8853E-02    0.4462E-02    0.2211E-02
  (  1,  4,  1) (  1,  4,  1) (  1,  4,  1) (  1,  4,  1) (  1,  4,  1)
     0.1101E-02    0.5497E-03    0.2747E-03    0.1648E-03
  (  1,  4,  1) (  1,  4,  1) (  1,  4,  1) (  1,  4,  1)


 NO OUTPUT CONTROL FOR STRESS PERIOD    9   TIME STEP   9
 
 SOLVING FOR HEAD 
     9 ITERATIONS FOR TIME STEP  10 IN STRESS PERIOD    9

 MAXIMUM HEAD CHANGE FOR EACH ITERATION:

    HEAD CHANGE   HEAD CHANGE   HEAD CHANGE   HEAD CHANGE   HEAD CHANGE
  LAYER,ROW,COL LAYER,ROW,COL LAYER,ROW,COL LAYER,ROW,COL LAYER,ROW,COL
 ----------------------------------------------------------------------
     0.3809E-01    0.1915E-01    0.9565E-02    0.4811E-02    0.2411E-02
  (  1,  4,  1) (  1,  4,  1) (  1,  4,  1) (  1,  4,  1) (  1,  4,  1)
     0.1206E-02    0.6036E-03    0.3018E-03    0.1207E-03
  (  1,  4,  1) (  1,  4,  1) (  1,  4,  1) (  1,  4,  1)


 OUTPUT CONTROL FOR STRESS PERIOD    9   TIME STEP  10
    PRINT BUDGET
    SAVE BUDGET

            WELLS   PERIOD    9   STEP  10
 WELL      1   LAYER   1   ROW     6   COL     4   RATE    -1.00000    
 WELL      2   LAYER   1   ROW     6   COL     5   RATE    -1.00000    
 WELL      3   LAYER   1   ROW     7   COL     4   RATE    -1.00000    
 WELL      4   LAYER   1   ROW     7   COL     5   RATE    -1.00000    
 WELL      5   LAYER   1   ROW     8   COL     4   RATE    -1.00000    
 WELL      6   LAYER   1   ROW     8   COL     5   RATE    -1.00000    
 WELL      7   LAYER   1   ROW     9   COL     4   RATE    -1.00000    
 WELL      8   LAYER   1   ROW     9   COL     5   RATE    -1.00000    
 WELL      9   LAYER   1   ROW    10   COL     4   RATE    -1.00000    
 WELL     10   LAYER   1   ROW    10   COL     5   RATE    -1.00000    

  HEAD DEP BOUNDS   PERIOD    9   STEP  10
 BOUNDARY      1   LAYER   1   ROW    13   COL     1   RATE   -0.263541    
 BOUNDARY      2   LAYER   1   ROW    14   COL     9   RATE    0.208956    
 UBDSV3 SAVING "           GW ET" ON UNIT  61 AT TIME STEP 10, STRESS PERIOD   9
 UBDSV3 SAVING "    UZF RECHARGE" ON UNIT  61 AT TIME STEP 10, STRESS PERIOD   9
 UBDSV3 SAVING " SURFACE LEAKAGE" ON UNIT  61 AT TIME STEP 10, STRESS PERIOD   9


UNSATURATED ZONE PACKAGE VOLUMETRIC BUDGET FOR  TIME STEP   10 STRESS PERIOD    9
  ------------------------------------------------------------------------------



     CUMULATIVE VOLUMES      L**3       RATES FOR THIS TIME STEP      L**3/T
     ------------------                 ------------------------

           IN:                                      IN:
           ---                                      ---
        INFILTRATION =  1414398573.3955          INFILTRATION =          25.4250

          OUT:                                     OUT:
          ----                                     ----
              UZF ET =  1704773023.5253                UZF ET =          65.9279
        UZF RECHARGE =   291821970.1018          UZF RECHARGE =          10.5605

            IN - OUT =  -582196420.2315              IN - OUT =         -51.0634

          STORAGE:                                 STORAGE:
          --------                                 --------
      STORAGE CHANGE =  -581991080.4304        STORAGE CHANGE =         -51.0615

 PERCENT DISCREPANCY IS DIFFERENCE BETWEEN IN-OUT MINUS CHANGE IN STORAGE
 DIVIDED BY THE AVERAGE OF IN AND OUT TIMES 100

 PERCENT DISCREPANCY =           0.00     PERCENT DISCREPANCY =           0.00









 STREAM LISTING     PERIOD      9   STEP       10

 LAYER ROW COL. STREAM  RCH.  FLOW INTO     FLOW TO   FLOW OUT OF   OVRLND.     DIRECT     STREAM       STREAM     STREAM     STREAM   STREAMBED  STREAMBED
                SEG.NO.  NO.  STRM. RCH.    AQUIFER    STRM. RCH.    RUNOFF     PRECIP       ET          HEAD       DEPTH      WIDTH   CONDCTNC.   GRADIENT

   1    1    1     1     1    2.5000E+01  1.0564E+00   2.3944E+01  0.000E+00  0.000E+00  0.000E+00  1.09422E+03  1.172E+00  1.296E+01  5.831E-01  6.039E-01
   1    2    2     1     2    2.3944E+01  3.0654E+00   2.0878E+01  0.000E+00  0.000E+00  0.000E+00  1.08920E+03  1.140E+00  1.253E+01  8.771E-01  1.165E+00
   1    3    3     1     3    2.0878E+01  2.9031E+00   1.7975E+01  0.000E+00  0.000E+00  0.000E+00  1.08351E+03  1.091E+00  1.183E+01  7.097E-01  1.364E+00
   1    3    4     1     4    1.7975E+01  2.4658E+00   1.5509E+01  0.000E+00  0.000E+00  0.000E+00  1.07845E+03  1.045E+00  1.098E+01  6.096E-01  1.348E+00
   1    4    5     2     1    5.5094E+00  2.6620E+00   2.8474E+00  0.000E+00  0.000E+00  0.000E+00  1.07235E+03  4.128E-01  1.200E+01  7.800E-01  1.138E+00
   1    5    6     2     2    2.8474E+00  1.9529E+00   8.9445E-01  0.000E+00  0.000E+00  0.000E+00  1.06676E+03  2.549E-01  1.200E+01  6.000E-01  1.085E+00
   1    6    6     2     3    8.9445E-01  8.9445E-01   0.0000E+00  0.000E+00  0.000E+00  0.000E+00  1.06183E+03  3.684E-02  1.200E+01  6.000E-01  1.012E+00
   1    7    6     2     4    0.0000E+00  0.0000E+00   0.0000E+00  0.000E+00  0.000E+00  0.000E+00  1.05708E+03  0.000E+00  1.200E+01  6.000E-01  1.000E+00
   1    8    6     2     5    0.0000E+00  0.0000E+00   0.0000E+00  0.000E+00  0.000E+00  0.000E+00  1.05236E+03  0.000E+00  1.200E+01  6.000E-01  1.000E+00
   1    3    5     3     1    1.0000E+01  2.8252E+00   7.1748E+00  0.000E+00  0.000E+00  0.000E+00  1.07555E+03  1.909E+00  9.636E+00  7.227E-01  1.955E+00
   1    3    6     3     2    7.1748E+00  1.7013E+00   5.4736E+00  0.000E+00  0.000E+00  0.000E+00  1.07264E+03  1.727E+00  8.909E+00  6.682E-01  1.273E+00
   1    3    7     3     3    5.4736E+00  7.9823E-01   4.6753E+00  0.000E+00  0.000E+00  0.000E+00  1.06987E+03  1.555E+00  8.218E+00  5.547E-01  7.195E-01
   1    4    8     3     4    4.6753E+00  1.5329E+00   3.1425E+00  0.000E+00  0.000E+00  0.000E+00  1.06682E+03  1.364E+00  7.455E+00  6.709E-01  1.142E+00
   1    5    8     3     5    3.1425E+00  1.5790E+00   1.5635E+00  0.000E+00  0.000E+00  0.000E+00  1.06362E+03  1.164E+00  6.655E+00  4.991E-01  1.582E+00
   1    6    8     3     6    1.5635E+00  5.5980E-01   1.0037E+00  0.000E+00  0.000E+00  0.000E+00  1.06158E+03  1.036E+00  6.145E+00  1.844E-01  1.518E+00
   1    5   10     4     1    1.0000E+01  9.0525E-01   9.0947E+00  0.000E+00  0.000E+00  0.000E+00  1.07835E+03  6.210E-01  1.000E+01  2.500E-01  1.207E+00
   1    5    9     4     2    9.0947E+00  1.7835E+00   7.3113E+00  0.000E+00  0.000E+00  0.000E+00  1.07148E+03  5.670E-01  1.000E+01  5.000E-01  1.189E+00
   1    6    8     4     3    7.3113E+00  1.2257E+00   6.0855E+00  0.000E+00  0.000E+00  0.000E+00  1.06368E+03  5.021E-01  1.000E+01  3.500E-01  1.167E+00
   1    6    8     5     1    7.0892E+00  9.1918E-01   6.1701E+00  0.000E+00  0.000E+00  0.000E+00  1.05858E+03  5.816E-01  1.182E+01  4.729E-01  6.479E-01
   1    7    7     5     2    6.1701E+00  1.8194E+00   4.3507E+00  0.000E+00  0.000E+00  0.000E+00  1.05404E+03  5.364E-01  1.029E+01  5.145E-01  1.179E+00
   1    8    7     5     3    4.3507E+00  1.0364E+00   3.3143E+00  0.000E+00  0.000E+00  0.000E+00  1.04973E+03  4.801E-01  8.509E+00  2.978E-01  1.160E+00
   1    8    6     5     4    3.3143E+00  6.3168E-01   2.6826E+00  0.000E+00  0.000E+00  0.000E+00  1.04669E+03  4.406E-01  7.344E+00  1.836E-01  1.147E+00
   1    9    6     6     1    2.6826E+00  1.9465E+00   7.3608E-01  0.000E+00  0.000E+00  0.000E+00  1.04297E+03  2.442E-01  1.200E+01  6.000E-01  1.081E+00
   1   10    7     6     2    7.3608E-01  7.3608E-01   0.0000E+00  0.000E+00  0.000E+00  0.000E+00  1.03821E+03  3.314E-02  1.200E+01  6.000E-01  1.011E+00
   1   11    7     6     3    0.0000E+00  0.0000E+00   0.0000E+00  0.000E+00  0.000E+00  0.000E+00  1.03364E+03  0.000E+00  1.200E+01  6.000E-01  1.000E+00
   1   12    7     6     4    0.0000E+00  0.0000E+00   0.0000E+00  0.000E+00  0.000E+00  0.000E+00  1.02909E+03  0.000E+00  1.200E+01  6.000E-01  2.757E-01
   1   13    7     6     5    0.0000E+00 -8.0033E-01   8.0033E-01  0.000E+00  0.000E+00  0.000E+00  1.02591E+03  0.000E+00  1.200E+01  2.400E-01 -1.112E+00
   1   14    9     7     1    1.5000E+02  2.0431E+00   1.4796E+02  0.000E+00  0.000E+00  0.000E+00  1.03987E+03  2.286E+00  5.529E+01  5.592E+00  1.218E-01
   1   13    8     7     2    1.4796E+02  3.0019E+00   1.4496E+02  0.000E+00  0.000E+00  0.000E+00  1.03477E+03  2.272E+00  5.523E+01  6.144E+00  1.629E-01
   1   13    7     7     3    1.4496E+02  2.4176E+00   1.4254E+02  0.000E+00  0.000E+00  0.000E+00  1.02968E+03  2.258E+00  5.516E+01  5.578E+00  1.445E-01
   1   13    6     8     1    1.4334E+02  7.2359E-01   1.4261E+02  0.000E+00  0.000E+00  0.000E+00  1.02464E+03  2.767E+00  4.012E+01  4.088E+00  5.900E-02
   1   13    5     8     2    1.4261E+02 -2.0936E+00   1.4471E+02  0.000E+00  0.000E+00  0.000E+00  1.01840E+03  2.772E+00  4.019E+01  4.095E+00 -1.704E-01
   1   13    4     8     3    1.4471E+02 -3.8039E+00   1.4851E+02  0.000E+00  0.000E+00  0.000E+00  1.01217E+03  2.793E+00  4.050E+01  4.127E+00 -3.073E-01
   1   13    3     8     4    1.4851E+02 -4.0779E+00   1.5259E+02  0.000E+00  0.000E+00  0.000E+00  1.00595E+03  2.821E+00  4.090E+01  4.168E+00 -3.261E-01
   1   13    2     8     5    1.5259E+02 -2.0810E+00   1.5467E+02  0.000E+00  0.000E+00  0.000E+00  9.99717E+02  2.842E+00  4.121E+01  4.200E+00 -1.652E-01
   1   13    1     8     6    1.5467E+02 -5.2839E-01   1.5520E+02  0.000E+00  0.000E+00  0.000E+00  9.94726E+02  2.851E+00  4.134E+01  2.528E+00 -6.968E-02



1
  VOLUMETRIC BUDGET FOR ENTIRE MODEL AT END OF TIME STEP 10 IN STRESS PERIOD   9
  ------------------------------------------------------------------------------

     CUMULATIVE VOLUMES      L**3       RATES FOR THIS TIME STEP      L**3/T
     ------------------                 ------------------------

           IN:                                      IN:
           ---                                      ---
             STORAGE =    73089032.0000               STORAGE =           0.6392
       CONSTANT HEAD =           0.0000         CONSTANT HEAD =           0.0000
               WELLS =           0.0000                 WELLS =           0.0000
     HEAD DEP BOUNDS =     4667056.0000       HEAD DEP BOUNDS =           0.2090
        UZF RECHARGE =   291822112.0000          UZF RECHARGE =          10.5605
               GW ET =           0.0000                 GW ET =           0.0000
     SURFACE LEAKAGE =           0.0000       SURFACE LEAKAGE =           0.0000
      STREAM LEAKAGE =   963851968.0000        STREAM LEAKAGE =          43.1862

            TOTAL IN =  1333430144.0000              TOTAL IN =          54.5949

          OUT:                                     OUT:
          ----                                     ----
             STORAGE =   342518720.0000               STORAGE =          12.8216
       CONSTANT HEAD =           0.0000         CONSTANT HEAD =           0.0000
               WELLS =   302262272.0000                 WELLS =          10.0000
     HEAD DEP BOUNDS =     5888998.5000       HEAD DEP BOUNDS =           0.2635
        UZF RECHARGE =           0.0000          UZF RECHARGE =           0.0000
               GW ET =   381434528.0000                 GW ET =          18.1401
     SURFACE LEAKAGE =           0.0000       SURFACE LEAKAGE =           0.0000
      STREAM LEAKAGE =   301100416.0000        STREAM LEAKAGE =          13.3851

           TOTAL OUT =  1333204992.0000             TOTAL OUT =          54.6104

            IN - OUT =      225152.0000              IN - OUT =      -1.5450E-02

 PERCENT DISCREPANCY =           0.02     PERCENT DISCREPANCY =          -0.03






          TIME SUMMARY AT END OF TIME STEP  10 IN STRESS PERIOD    9
                    SECONDS     MINUTES      HOURS       DAYS        YEARS
                    -----------------------------------------------------------
   TIME STEP LENGTH 1.95033E+05  3250.6      54.176      2.2573     6.18023E-03
 STRESS PERIOD TIME 1.31823E+06  21971.      366.18      15.257     4.17723E-02
         TOTAL TIME 2.23422E+07 3.72370E+05  6206.2      258.59     0.70798    
1
 
 SOLVING FOR HEAD 
     9 ITERATIONS FOR TIME STEP  11 IN STRESS PERIOD    9

 MAXIMUM HEAD CHANGE FOR EACH ITERATION:

    HEAD CHANGE   HEAD CHANGE   HEAD CHANGE   HEAD CHANGE   HEAD CHANGE
  LAYER,ROW,COL LAYER,ROW,COL LAYER,ROW,COL LAYER,ROW,COL LAYER,ROW,COL
 ----------------------------------------------------------------------
     0.4046E-01    0.2023E-01    0.1015E-01    0.5082E-02    0.2542E-02
  (  1,  4,  1) (  1,  4,  1) (  1,  4,  1) (  1,  4,  1) (  1,  4,  1)
     0.1305E-02    0.6588E-03    0.3307E-03    0.1325E-03
  (  1,  4,  1) (  1,  4,  1) (  1,  4,  1) (  1,  4,  1)


 NO OUTPUT CONTROL FOR STRESS PERIOD    9   TIME STEP  11
 
 SOLVING FOR HEAD 
     9 ITERATIONS FOR TIME STEP  12 IN STRESS PERIOD    9

 MAXIMUM HEAD CHANGE FOR EACH ITERATION:

    HEAD CHANGE   HEAD CHANGE   HEAD CHANGE   HEAD CHANGE   HEAD CHANGE
  LAYER,ROW,COL LAYER,ROW,COL LAYER,ROW,COL LAYER,ROW,COL LAYER,ROW,COL
 ----------------------------------------------------------------------
     0.4196E-01    0.2086E-01    0.1037E-01    0.5135E-02    0.2558E-02
  (  1,  4,  1) (  1,  4,  1) (  1,  4,  1) (  1,  4,  1) (  1,  4,  1)
     0.1241E-02    0.6125E-03    0.3411E-03    0.1411E-03
  (  1,  4,  1) (  1,  4,  1) (  1,  4,  1) (  1,  4,  1)


 NO OUTPUT CONTROL FOR STRESS PERIOD    9   TIME STEP  12
 
 SOLVING FOR HEAD 
     9 ITERATIONS FOR TIME STEP  13 IN STRESS PERIOD    9

 MAXIMUM HEAD CHANGE FOR EACH ITERATION:

    HEAD CHANGE   HEAD CHANGE   HEAD CHANGE   HEAD CHANGE   HEAD CHANGE
  LAYER,ROW,COL LAYER,ROW,COL LAYER,ROW,COL LAYER,ROW,COL LAYER,ROW,COL
 ----------------------------------------------------------------------
     0.4301E-01    0.2126E-01    0.1042E-01    0.5128E-02    0.2548E-02
  (  1,  4,  1) (  1,  4,  1) (  1,  4,  1) (  1,  4,  1) (  1,  4,  1)
     0.1230E-02    0.6464E-03    0.2894E-03    0.1379E-03
  (  1,  4,  1) (  1,  4,  1) (  1,  4,  1) (  1,  4,  1)


 NO OUTPUT CONTROL FOR STRESS PERIOD    9   TIME STEP  13
 
 SOLVING FOR HEAD 
     9 ITERATIONS FOR TIME STEP  14 IN STRESS PERIOD    9

 MAXIMUM HEAD CHANGE FOR EACH ITERATION:

    HEAD CHANGE   HEAD CHANGE   HEAD CHANGE   HEAD CHANGE   HEAD CHANGE
  LAYER,ROW,COL LAYER,ROW,COL LAYER,ROW,COL LAYER,ROW,COL LAYER,ROW,COL
 ----------------------------------------------------------------------
     0.4524E-01    0.2225E-01    0.1096E-01    0.5361E-02    0.2656E-02
  (  1,  4,  1) (  1,  4,  1) (  1,  4,  1) (  1,  4,  1) (  1,  4,  1)
     0.1323E-02    0.6165E-03    0.2992E-03    0.1478E-03
  (  1,  4,  1) (  1,  4,  1) (  1,  4,  1) (  1,  4,  1)


 NO OUTPUT CONTROL FOR STRESS PERIOD    9   TIME STEP  14
 
 SOLVING FOR HEAD 
    10 ITERATIONS FOR TIME STEP  15 IN STRESS PERIOD    9

 MAXIMUM HEAD CHANGE FOR EACH ITERATION:

    HEAD CHANGE   HEAD CHANGE   HEAD CHANGE   HEAD CHANGE   HEAD CHANGE
  LAYER,ROW,COL LAYER,ROW,COL LAYER,ROW,COL LAYER,ROW,COL LAYER,ROW,COL
 ----------------------------------------------------------------------
     0.6517E-01    0.3255E-01    0.1627E-01    0.8181E-02    0.4052E-02
  (  1,  6,  1) (  1,  6,  1) (  1,  6,  1) (  1,  6,  1) (  1,  6,  1)
     0.2066E-02    0.9925E-03    0.4885E-03    0.2904E-03    0.1339E-03
  (  1,  6,  1) (  1,  6,  1) (  1,  6,  1) (  1,  6,  1) (  1,  5,  1)


 OUTPUT CONTROL FOR STRESS PERIOD    9   TIME STEP  15
    PRINT BUDGET
    PRINT HEAD FOR ALL LAYERS
    SAVE HEAD FOR ALL LAYERS
    SAVE BUDGET

            WELLS   PERIOD    9   STEP  15
 WELL      1   LAYER   1   ROW     6   COL     4   RATE    -1.00000    
 WELL      2   LAYER   1   ROW     6   COL     5   RATE    -1.00000    
 WELL      3   LAYER   1   ROW     7   COL     4   RATE    -1.00000    
 WELL      4   LAYER   1   ROW     7   COL     5   RATE    -1.00000    
 WELL      5   LAYER   1   ROW     8   COL     4   RATE    -1.00000    
 WELL      6   LAYER   1   ROW     8   COL     5   RATE    -1.00000    
 WELL      7   LAYER   1   ROW     9   COL     4   RATE    -1.00000    
 WELL      8   LAYER   1   ROW     9   COL     5   RATE    -1.00000    
 WELL      9   LAYER   1   ROW    10   COL     4   RATE    -1.00000    
 WELL     10   LAYER   1   ROW    10   COL     5   RATE    -1.00000    

  HEAD DEP BOUNDS   PERIOD    9   STEP  15
 BOUNDARY      1   LAYER   1   ROW    13   COL     1   RATE   -0.263316    
 BOUNDARY      2   LAYER   1   ROW    14   COL     9   RATE    0.208977    
 UBDSV3 SAVING "           GW ET" ON UNIT  61 AT TIME STEP 15, STRESS PERIOD   9
 UBDSV3 SAVING "    UZF RECHARGE" ON UNIT  61 AT TIME STEP 15, STRESS PERIOD   9
 UBDSV3 SAVING " SURFACE LEAKAGE" ON UNIT  61 AT TIME STEP 15, STRESS PERIOD   9


UNSATURATED ZONE PACKAGE VOLUMETRIC BUDGET FOR  TIME STEP   15 STRESS PERIOD    9
  ------------------------------------------------------------------------------



     CUMULATIVE VOLUMES      L**3       RATES FOR THIS TIME STEP      L**3/T
     ------------------                 ------------------------

           IN:                                      IN:
           ---                                      ---
        INFILTRATION =  1447699382.9512          INFILTRATION =          25.4250

          OUT:                                     OUT:
          ----                                     ----
              UZF ET =  1783843658.4071                UZF ET =          57.7653
        UZF RECHARGE =   305497825.1784          UZF RECHARGE =          11.1584

            IN - OUT =  -641642100.6343              IN - OUT =         -43.4987

          STORAGE:                                 STORAGE:
          --------                                 --------
      STORAGE CHANGE =  -641441256.3501        STORAGE CHANGE =         -43.4963

 PERCENT DISCREPANCY IS DIFFERENCE BETWEEN IN-OUT MINUS CHANGE IN STORAGE
 DIVIDED BY THE AVERAGE OF IN AND OUT TIMES 100

 PERCENT DISCREPANCY =           0.00     PERCENT DISCREPANCY =           0.00









 STREAM LISTING     PERIOD      9   STEP       15

 LAYER ROW COL. STREAM  RCH.  FLOW INTO     FLOW TO   FLOW OUT OF   OVRLND.     DIRECT     STREAM       STREAM     STREAM     STREAM   STREAMBED  STREAMBED
                SEG.NO.  NO.  STRM. RCH.    AQUIFER    STRM. RCH.    RUNOFF     PRECIP       ET          HEAD       DEPTH      WIDTH   CONDCTNC.   GRADIENT

   1    1    1     1     1    2.5000E+01  1.0591E+00   2.3941E+01  0.000E+00  0.000E+00  0.000E+00  1.09422E+03  1.172E+00  1.296E+01  5.830E-01  6.055E-01
   1    2    2     1     2    2.3941E+01  3.0654E+00   2.0876E+01  0.000E+00  0.000E+00  0.000E+00  1.08920E+03  1.140E+00  1.253E+01  8.771E-01  1.165E+00
   1    3    3     1     3    2.0876E+01  2.9028E+00   1.7973E+01  0.000E+00  0.000E+00  0.000E+00  1.08351E+03  1.091E+00  1.183E+01  7.096E-01  1.364E+00
   1    3    4     1     4    1.7973E+01  2.4656E+00   1.5507E+01  0.000E+00  0.000E+00  0.000E+00  1.07845E+03  1.045E+00  1.098E+01  6.096E-01  1.348E+00
   1    4    5     2     1    5.5071E+00  2.6619E+00   2.8452E+00  0.000E+00  0.000E+00  0.000E+00  1.07235E+03  4.127E-01  1.200E+01  7.800E-01  1.138E+00
   1    5    6     2     2    2.8452E+00  1.9528E+00   8.9240E-01  0.000E+00  0.000E+00  0.000E+00  1.06676E+03  2.547E-01  1.200E+01  6.000E-01  1.085E+00
   1    6    6     2     3    8.9240E-01  8.9240E-01   0.0000E+00  0.000E+00  0.000E+00  0.000E+00  1.06183E+03  3.678E-02  1.200E+01  6.000E-01  1.012E+00
   1    7    6     2     4    0.0000E+00  0.0000E+00   0.0000E+00  0.000E+00  0.000E+00  0.000E+00  1.05708E+03  0.000E+00  1.200E+01  6.000E-01  1.000E+00
   1    8    6     2     5    0.0000E+00  0.0000E+00   0.0000E+00  0.000E+00  0.000E+00  0.000E+00  1.05236E+03  0.000E+00  1.200E+01  6.000E-01  1.000E+00
   1    3    5     3     1    1.0000E+01  2.8252E+00   7.1748E+00  0.000E+00  0.000E+00  0.000E+00  1.07555E+03  1.909E+00  9.636E+00  7.227E-01  1.955E+00
   1    3    6     3     2    7.1748E+00  1.7034E+00   5.4715E+00  0.000E+00  0.000E+00  0.000E+00  1.07264E+03  1.727E+00  8.909E+00  6.682E-01  1.275E+00
   1    3    7     3     3    5.4715E+00  7.8894E-01   4.6825E+00  0.000E+00  0.000E+00  0.000E+00  1.06987E+03  1.555E+00  8.218E+00  5.547E-01  7.111E-01
   1    4    8     3     4    4.6825E+00  1.5471E+00   3.1355E+00  0.000E+00  0.000E+00  0.000E+00  1.06682E+03  1.364E+00  7.455E+00  6.709E-01  1.153E+00
   1    5    8     3     5    3.1355E+00  1.5790E+00   1.5565E+00  0.000E+00  0.000E+00  0.000E+00  1.06362E+03  1.164E+00  6.655E+00  4.991E-01  1.582E+00
   1    6    8     3     6    1.5565E+00  5.5980E-01   9.9670E-01  0.000E+00  0.000E+00  0.000E+00  1.06158E+03  1.036E+00  6.145E+00  1.844E-01  1.518E+00
   1    5   10     4     1    1.0000E+01  9.0525E-01   9.0947E+00  0.000E+00  0.000E+00  0.000E+00  1.07835E+03  6.210E-01  1.000E+01  2.500E-01  1.207E+00
   1    5    9     4     2    9.0947E+00  1.7835E+00   7.3113E+00  0.000E+00  0.000E+00  0.000E+00  1.07148E+03  5.670E-01  1.000E+01  5.000E-01  1.189E+00
   1    6    8     4     3    7.3113E+00  1.2257E+00   6.0855E+00  0.000E+00  0.000E+00  0.000E+00  1.06368E+03  5.021E-01  1.000E+01  3.500E-01  1.167E+00
   1    6    8     5     1    7.0822E+00  9.0715E-01   6.1751E+00  0.000E+00  0.000E+00  0.000E+00  1.05858E+03  5.816E-01  1.182E+01  4.728E-01  6.395E-01
   1    7    7     5     2    6.1751E+00  1.8143E+00   4.3608E+00  0.000E+00  0.000E+00  0.000E+00  1.05404E+03  5.367E-01  1.030E+01  5.149E-01  1.174E+00
   1    8    7     5     3    4.3608E+00  1.0381E+00   3.3228E+00  0.000E+00  0.000E+00  0.000E+00  1.04973E+03  4.805E-01  8.521E+00  2.982E-01  1.160E+00
   1    8    6     5     4    3.3228E+00  6.3276E-01   2.6900E+00  0.000E+00  0.000E+00  0.000E+00  1.04669E+03  4.410E-01  7.356E+00  1.839E-01  1.147E+00
   1    9    6     6     1    2.6900E+00  1.9469E+00   7.4313E-01  0.000E+00  0.000E+00  0.000E+00  1.04297E+03  2.448E-01  1.200E+01  6.000E-01  1.082E+00
   1   10    7     6     2    7.4313E-01  7.4313E-01   0.0000E+00  0.000E+00  0.000E+00  0.000E+00  1.03822E+03  3.333E-02  1.200E+01  6.000E-01  1.011E+00
   1   11    7     6     3    0.0000E+00  0.0000E+00   0.0000E+00  0.000E+00  0.000E+00  0.000E+00  1.03364E+03  0.000E+00  1.200E+01  6.000E-01  1.000E+00
   1   12    7     6     4    0.0000E+00  0.0000E+00   0.0000E+00  0.000E+00  0.000E+00  0.000E+00  1.02909E+03  0.000E+00  1.200E+01  6.000E-01  2.728E-01
   1   13    7     6     5    0.0000E+00 -7.9956E-01   7.9956E-01  0.000E+00  0.000E+00  0.000E+00  1.02591E+03  0.000E+00  1.200E+01  2.400E-01 -1.111E+00
   1   14    9     7     1    1.5000E+02  2.0462E+00   1.4795E+02  0.000E+00  0.000E+00  0.000E+00  1.03987E+03  2.286E+00  5.529E+01  5.592E+00  1.220E-01
   1   13    8     7     2    1.4795E+02  3.0078E+00   1.4495E+02  0.000E+00  0.000E+00  0.000E+00  1.03477E+03  2.272E+00  5.523E+01  6.144E+00  1.632E-01
   1   13    7     7     3    1.4495E+02  2.4350E+00   1.4251E+02  0.000E+00  0.000E+00  0.000E+00  1.02968E+03  2.258E+00  5.516E+01  5.578E+00  1.455E-01
   1   13    6     8     1    1.4331E+02  7.3473E-01   1.4258E+02  0.000E+00  0.000E+00  0.000E+00  1.02464E+03  2.766E+00  4.011E+01  4.088E+00  5.992E-02
   1   13    5     8     2    1.4258E+02 -2.0603E+00   1.4464E+02  0.000E+00  0.000E+00  0.000E+00  1.01840E+03  2.771E+00  4.018E+01  4.095E+00 -1.677E-01
   1   13    4     8     3    1.4464E+02 -3.7856E+00   1.4842E+02  0.000E+00  0.000E+00  0.000E+00  1.01217E+03  2.792E+00  4.049E+01  4.126E+00 -3.059E-01
   1   13    3     8     4    1.4842E+02 -4.0356E+00   1.5246E+02  0.000E+00  0.000E+00  0.000E+00  1.00594E+03  2.820E+00  4.089E+01  4.167E+00 -3.228E-01
   1   13    2     8     5    1.5246E+02 -2.0790E+00   1.5454E+02  0.000E+00  0.000E+00  0.000E+00  9.99716E+02  2.841E+00  4.120E+01  4.198E+00 -1.651E-01
   1   13    1     8     6    1.5454E+02 -5.1571E-01   1.5505E+02  0.000E+00  0.000E+00  0.000E+00  9.94725E+02  2.850E+00  4.133E+01  2.527E+00 -6.803E-02



1
              HEAD IN LAYER   1 AT END OF TIME STEP  15 IN STRESS PERIOD    9
  ---------------------------------------------------------------------------

           1       2       3       4       5       6       7       8       9      10
 ...................................................................................
   1  1092.40 1088.65 6999.00 6999.00 6999.00 6999.00 6999.00 6999.00 6999.00 6999.00
   2  1089.07 1085.70 1079.25 6999.00 6999.00 1074.01 1072.95 1070.79 6999.00 6999.00
   3  6999.00 1077.38 1074.47 1070.34 1071.31 1070.09 1068.45 1068.03 6999.00 6999.00
   4  1068.66 1068.50 1066.88 1063.45 1062.32 1061.03 1061.71 1064.51 1063.88 6999.00
   5  1063.85 1061.43 1059.01 1057.22 1056.95 1057.49 1057.36 1059.48 1062.95 1065.36
   6  1059.19 1055.53 1052.72 1051.24 1051.52 1052.99 1054.26 1056.66 1059.47 1063.70
   7  1055.39 1049.89 1046.95 1045.75 1046.33 1048.09 1050.51 1052.89 1054.24 6999.00
   8  6999.00 1042.56 1040.92 1040.24 1041.08 1043.04 1044.84 1047.32 1049.21 6999.00
   9  6999.00 1035.60 1034.90 1034.83 1035.98 1038.12 1039.02 1040.87 1043.79 6999.00
  10  6999.00 1028.53 1028.85 1029.76 1031.20 1033.08 1034.41 1036.36 1040.07 1044.39
  11  6999.00 1019.71 1021.38 1024.90 1026.93 1029.01 1030.55 1032.88 1036.33 6999.00
  12  1001.20 1008.86 1014.09 1018.94 1022.59 1025.84 1028.27 1031.07 1034.89 6999.00
  13   994.93 1000.21 1006.91 1013.08 1018.90 1024.46 1029.24 1034.28 1036.40 6999.00
  14  6999.00 1005.83 1011.49 1016.21 1021.24 1025.94 1030.22 1035.27 1039.50 6999.00
  15  6999.00 6999.00 1018.84 1021.83 1025.57 1028.54 6999.00 6999.00 6999.00 6999.00

 HEAD WILL BE SAVED ON UNIT   58 AT END OF TIME STEP  15, STRESS PERIOD    9
1
  VOLUMETRIC BUDGET FOR ENTIRE MODEL AT END OF TIME STEP 15 IN STRESS PERIOD   9
  ------------------------------------------------------------------------------

     CUMULATIVE VOLUMES      L**3       RATES FOR THIS TIME STEP      L**3/T
     ------------------                 ------------------------

           IN:                                      IN:
           ---                                      ---
             STORAGE =    74077048.0000               STORAGE =           0.8943
       CONSTANT HEAD =           0.0000         CONSTANT HEAD =           0.0000
               WELLS =           0.0000                 WELLS =           0.0000
     HEAD DEP BOUNDS =     4940754.0000       HEAD DEP BOUNDS =           0.2090
        UZF RECHARGE =   305497952.0000          UZF RECHARGE =          11.1584
               GW ET =           0.0000                 GW ET =           0.0000
     SURFACE LEAKAGE =           0.0000       SURFACE LEAKAGE =           0.0000
      STREAM LEAKAGE =  1020446656.0000        STREAM LEAKAGE =          43.2237

            TOTAL IN =  1404962432.0000              TOTAL IN =          55.4854

          OUT:                                     OUT:
          ----                                     ----
             STORAGE =   359312352.0000               STORAGE =          13.7071
       CONSTANT HEAD =           0.0000         CONSTANT HEAD =           0.0000
               WELLS =   315359968.0000                 WELLS =          10.0000
     HEAD DEP BOUNDS =     6233993.5000       HEAD DEP BOUNDS =           0.2633
        UZF RECHARGE =           0.0000          UZF RECHARGE =           0.0000
               GW ET =   405293824.0000                 GW ET =          18.2525
     SURFACE LEAKAGE =           0.0000       SURFACE LEAKAGE =           0.0000
      STREAM LEAKAGE =   318528480.0000        STREAM LEAKAGE =          13.2758

           TOTAL OUT =  1404728576.0000             TOTAL OUT =          55.4986

            IN - OUT =      233856.0000              IN - OUT =      -1.3199E-02

 PERCENT DISCREPANCY =           0.02     PERCENT DISCREPANCY =          -0.02






          TIME SUMMARY AT END OF TIME STEP  15 IN STRESS PERIOD    9
                    SECONDS     MINUTES      HOURS       DAYS        YEARS
                    -----------------------------------------------------------
   TIME STEP LENGTH 3.14103E+05  5235.0      87.251      3.6354     9.95332E-03
 STRESS PERIOD TIME 2.62800E+06  43800.      730.00      30.417     8.32763E-02
         TOTAL TIME 2.36520E+07 3.94200E+05  6570.0      273.75     0.74949    
1
1
                            STRESS PERIOD NO.   10, LENGTH =   2628000.    
                            -----------------------------------------------

                              NUMBER OF TIME STEPS =    15

                               MULTIPLIER FOR DELT =     1.100

                            INITIAL TIME STEP SIZE =   82713.07    

      0 WELLS

 REUSING NON-PARAMETER GHB CELLS FROM LAST STRESS PERIOD

      2 GHB CELLS

 REUSING STREAM SEGMENT DATA FROM LAST STRESS PERIOD



            AREAL INFILTRATION RATE
 READING ON UNIT   19 WITH FORMAT: (10F4.0)            

            1           2           3           4           5           6           7           8           9          10
 ........................................................................................................................
   1   2.0000E-09  4.0000E-09   0.000       0.000       0.000       0.000       0.000       0.000       0.000       0.000    
   2   4.0000E-09  2.0000E-09  4.0000E-09   0.000       0.000      1.6000E-08  1.6000E-08  1.0000E-08   0.000       0.000    
   3    0.000      1.0000E-08  2.0000E-09  2.0000E-09  1.6000E-08  1.6000E-08  1.0000E-08  1.0000E-08   0.000       0.000    
   4   1.6000E-08  1.0000E-08  2.0000E-09  2.0000E-09  2.0000E-09  2.0000E-09  2.0000E-09  2.0000E-09  4.0000E-09   0.000    
   5   1.6000E-08  1.0000E-08  2.0000E-09  2.0000E-09  2.0000E-09  2.0000E-09  2.0000E-09  2.0000E-09  2.0000E-09  2.0000E-09
   6   1.6000E-08  1.0000E-08  1.0000E-08  4.0000E-09  4.0000E-09  2.0000E-09  2.0000E-09  2.0000E-09  2.0000E-09  1.0000E-08
   7   1.6000E-08  1.0000E-08  1.0000E-08  4.0000E-09  4.0000E-09  2.0000E-09  2.0000E-09  4.0000E-09  4.0000E-09   0.000    
   8    0.000      1.0000E-08  1.0000E-08  4.0000E-09  4.0000E-09  2.0000E-09  2.0000E-09  4.0000E-09  1.0000E-08   0.000    
   9    0.000      1.0000E-08  1.0000E-08  4.0000E-09  4.0000E-09  2.0000E-09  2.0000E-09  4.0000E-09  1.0000E-08   0.000    
  10    0.000      1.0000E-08  1.0000E-08  4.0000E-09  4.0000E-09  2.0000E-09  2.0000E-09  4.0000E-09  1.0000E-08  1.6000E-08
  11    0.000      2.0000E-09  2.0000E-09  2.0000E-09  2.0000E-09  2.0000E-09  2.0000E-09  4.0000E-09  1.0000E-08   0.000    
  12   2.0000E-09  2.0000E-09  2.0000E-09  2.0000E-09  2.0000E-09  2.0000E-09  2.0000E-09  2.0000E-09  4.0000E-09   0.000    
  13   2.0000E-09  2.0000E-09  4.0000E-09  4.0000E-09  4.0000E-09  4.0000E-09  4.0000E-09  2.0000E-09  2.0000E-09   0.000    
  14    0.000      4.0000E-09  1.0000E-08  1.0000E-08  1.0000E-08  1.0000E-08  1.0000E-08  4.0000E-09  2.0000E-09   0.000    
  15    0.000       0.000      1.6000E-08  1.6000E-08  1.6000E-08  1.6000E-08   0.000       0.000       0.000       0.000    

USING ET RATE FROM PREVIOUS STRESS PERIOD. CURRENT PERIOD IS:      10

 USING ET EXTINCTION DEPTH FROM PREVIOUS STRESS PERIOD. CURRENT PERIOD IS:      10

 USING EXTINCTION WATER CONTENT FROM PREVIOUS STRESS PERIOD. CURRENT PERIOD IS:      10
 
 SOLVING FOR HEAD 

     8 ITERATIONS FOR TIME STEP   1 IN STRESS PERIOD   10

 MAXIMUM HEAD CHANGE FOR EACH ITERATION:

    HEAD CHANGE   HEAD CHANGE   HEAD CHANGE   HEAD CHANGE   HEAD CHANGE
  LAYER,ROW,COL LAYER,ROW,COL LAYER,ROW,COL LAYER,ROW,COL LAYER,ROW,COL
 ----------------------------------------------------------------------
     0.1813E-01    0.9088E-02    0.4600E-02    0.2311E-02    0.1183E-02
  (  1,  5,  1) (  1,  5,  1) (  1,  5,  1) (  1,  5,  1) (  1,  5,  1)
     0.5458E-03    0.3151E-03    0.1661E-03
  (  1,  5,  1) (  1,  5,  1) (  1,  5,  1)


 NO OUTPUT CONTROL FOR STRESS PERIOD   10   TIME STEP   1
 
 SOLVING FOR HEAD 
     8 ITERATIONS FOR TIME STEP   2 IN STRESS PERIOD   10

 MAXIMUM HEAD CHANGE FOR EACH ITERATION:

    HEAD CHANGE   HEAD CHANGE   HEAD CHANGE   HEAD CHANGE   HEAD CHANGE
  LAYER,ROW,COL LAYER,ROW,COL LAYER,ROW,COL LAYER,ROW,COL LAYER,ROW,COL
 ----------------------------------------------------------------------
     0.1991E-01    0.9988E-02    0.5056E-02    0.2541E-02    0.1245E-02
  (  1,  5,  1) (  1,  5,  1) (  1,  5,  1) (  1,  5,  1) (  1,  5,  1)
     0.6454E-03    0.2990E-03    0.1730E-03
  (  1,  5,  1) (  1,  5,  1) (  1,  5,  1)


 NO OUTPUT CONTROL FOR STRESS PERIOD   10   TIME STEP   2
 
 SOLVING FOR HEAD 
     8 ITERATIONS FOR TIME STEP   3 IN STRESS PERIOD   10

 MAXIMUM HEAD CHANGE FOR EACH ITERATION:

    HEAD CHANGE   HEAD CHANGE   HEAD CHANGE   HEAD CHANGE   HEAD CHANGE
  LAYER,ROW,COL LAYER,ROW,COL LAYER,ROW,COL LAYER,ROW,COL LAYER,ROW,COL
 ----------------------------------------------------------------------
     0.2132E-01    0.1062E-01    0.5301E-02    0.2680E-02    0.1345E-02
  (  1,  5,  1) (  1,  5,  1) (  1,  5,  1) (  1,  5,  1) (  1,  5,  1)
     0.6428E-03    0.3155E-03    0.1876E-03
  (  1,  5,  1) (  1,  5,  1) (  1,  5,  1)


 NO OUTPUT CONTROL FOR STRESS PERIOD   10   TIME STEP   3
 
 SOLVING FOR HEAD 
     8 ITERATIONS FOR TIME STEP   4 IN STRESS PERIOD   10

 MAXIMUM HEAD CHANGE FOR EACH ITERATION:

    HEAD CHANGE   HEAD CHANGE   HEAD CHANGE   HEAD CHANGE   HEAD CHANGE
  LAYER,ROW,COL LAYER,ROW,COL LAYER,ROW,COL LAYER,ROW,COL LAYER,ROW,COL
 ----------------------------------------------------------------------
     0.2261E-01    0.1120E-01    0.5529E-02    0.2818E-02    0.1386E-02
  (  1,  8,  4) (  1,  5,  1) (  1,  5,  1) (  1,  5,  1) (  1,  5,  1)
     0.6881E-03    0.3432E-03    0.1370E-03
  (  1,  5,  1) (  1,  5,  1) (  1,  5,  1)


 NO OUTPUT CONTROL FOR STRESS PERIOD   10   TIME STEP   4
 
 SOLVING FOR HEAD 
     9 ITERATIONS FOR TIME STEP   5 IN STRESS PERIOD   10

 MAXIMUM HEAD CHANGE FOR EACH ITERATION:

    HEAD CHANGE   HEAD CHANGE   HEAD CHANGE   HEAD CHANGE   HEAD CHANGE
  LAYER,ROW,COL LAYER,ROW,COL LAYER,ROW,COL LAYER,ROW,COL LAYER,ROW,COL
 ----------------------------------------------------------------------
     0.2464E-01    0.1221E-01    0.6057E-02    0.3019E-02    0.1507E-02
  (  1,  8,  4) (  1,  5,  1) (  1,  5,  1) (  1,  5,  1) (  1,  5,  1)
     0.7533E-03    0.3763E-03    0.2259E-03   -0.1387E-03
  (  1,  5,  1) (  1,  5,  1) (  1,  5,  1) (  1, 13,  1)


 OUTPUT CONTROL FOR STRESS PERIOD   10   TIME STEP   5
    PRINT BUDGET
    SAVE BUDGET

  HEAD DEP BOUNDS   PERIOD   10   STEP   5
 BOUNDARY      1   LAYER   1   ROW    13   COL     1   RATE   -0.263247    
 BOUNDARY      2   LAYER   1   ROW    14   COL     9   RATE    0.208970    
 UBDSV3 SAVING "           GW ET" ON UNIT  61 AT TIME STEP  5, STRESS PERIOD  10
 UBDSV3 SAVING "    UZF RECHARGE" ON UNIT  61 AT TIME STEP  5, STRESS PERIOD  10
 UBDSV3 SAVING " SURFACE LEAKAGE" ON UNIT  61 AT TIME STEP  5, STRESS PERIOD  10


UNSATURATED ZONE PACKAGE VOLUMETRIC BUDGET FOR  TIME STEP    5 STRESS PERIOD   10
  ------------------------------------------------------------------------------



     CUMULATIVE VOLUMES      L**3       RATES FOR THIS TIME STEP      L**3/T
     ------------------                 ------------------------

           IN:                                      IN:
           ---                                      ---
        INFILTRATION =  1456258651.1899          INFILTRATION =          16.9500

          OUT:                                     OUT:
          ----                                     ----
              UZF ET =  1812860336.7867                UZF ET =          57.2841
        UZF RECHARGE =   311875302.8653          UZF RECHARGE =          12.3991

            IN - OUT =  -668476988.4621              IN - OUT =         -52.7333

          STORAGE:                                 STORAGE:
          --------                                 --------
      STORAGE CHANGE =  -668276349.6337        STORAGE CHANGE =         -52.7332

 PERCENT DISCREPANCY IS DIFFERENCE BETWEEN IN-OUT MINUS CHANGE IN STORAGE
 DIVIDED BY THE AVERAGE OF IN AND OUT TIMES 100

 PERCENT DISCREPANCY =           0.00     PERCENT DISCREPANCY =           0.00









 STREAM LISTING     PERIOD     10   STEP        5

 LAYER ROW COL. STREAM  RCH.  FLOW INTO     FLOW TO   FLOW OUT OF   OVRLND.     DIRECT     STREAM       STREAM     STREAM     STREAM   STREAMBED  STREAMBED
                SEG.NO.  NO.  STRM. RCH.    AQUIFER    STRM. RCH.    RUNOFF     PRECIP       ET          HEAD       DEPTH      WIDTH   CONDCTNC.   GRADIENT

   1    1    1     1     1    2.5000E+01  1.0602E+00   2.3940E+01  0.000E+00  0.000E+00  0.000E+00  1.09422E+03  1.172E+00  1.296E+01  5.830E-01  6.061E-01
   1    2    2     1     2    2.3940E+01  3.0653E+00   2.0875E+01  0.000E+00  0.000E+00  0.000E+00  1.08920E+03  1.140E+00  1.253E+01  8.771E-01  1.165E+00
   1    3    3     1     3    2.0875E+01  2.9027E+00   1.7972E+01  0.000E+00  0.000E+00  0.000E+00  1.08351E+03  1.091E+00  1.183E+01  7.096E-01  1.364E+00
   1    3    4     1     4    1.7972E+01  2.4655E+00   1.5506E+01  0.000E+00  0.000E+00  0.000E+00  1.07845E+03  1.045E+00  1.098E+01  6.096E-01  1.348E+00
   1    4    5     2     1    5.5063E+00  2.6618E+00   2.8444E+00  0.000E+00  0.000E+00  0.000E+00  1.07235E+03  4.126E-01  1.200E+01  7.800E-01  1.138E+00
   1    5    6     2     2    2.8444E+00  1.9528E+00   8.9162E-01  0.000E+00  0.000E+00  0.000E+00  1.06676E+03  2.547E-01  1.200E+01  6.000E-01  1.085E+00
   1    6    6     2     3    8.9162E-01  8.9162E-01   0.0000E+00  0.000E+00  0.000E+00  0.000E+00  1.06183E+03  3.676E-02  1.200E+01  6.000E-01  1.012E+00
   1    7    6     2     4    0.0000E+00  0.0000E+00   0.0000E+00  0.000E+00  0.000E+00  0.000E+00  1.05708E+03  0.000E+00  1.200E+01  6.000E-01  1.000E+00
   1    8    6     2     5    0.0000E+00  0.0000E+00   0.0000E+00  0.000E+00  0.000E+00  0.000E+00  1.05236E+03  0.000E+00  1.200E+01  6.000E-01  1.000E+00
   1    3    5     3     1    1.0000E+01  2.8252E+00   7.1748E+00  0.000E+00  0.000E+00  0.000E+00  1.07555E+03  1.909E+00  9.636E+00  7.227E-01  1.955E+00
   1    3    6     3     2    7.1748E+00  1.7355E+00   5.4393E+00  0.000E+00  0.000E+00  0.000E+00  1.07264E+03  1.727E+00  8.909E+00  6.682E-01  1.299E+00
   1    3    7     3     3    5.4393E+00  8.0197E-01   4.6374E+00  0.000E+00  0.000E+00  0.000E+00  1.06987E+03  1.555E+00  8.218E+00  5.547E-01  7.228E-01
   1    4    8     3     4    4.6374E+00  1.5518E+00   3.0855E+00  0.000E+00  0.000E+00  0.000E+00  1.06682E+03  1.364E+00  7.455E+00  6.709E-01  1.157E+00
   1    5    8     3     5    3.0855E+00  1.5790E+00   1.5066E+00  0.000E+00  0.000E+00  0.000E+00  1.06362E+03  1.164E+00  6.655E+00  4.991E-01  1.582E+00
   1    6    8     3     6    1.5066E+00  5.5980E-01   9.4678E-01  0.000E+00  0.000E+00  0.000E+00  1.06158E+03  1.036E+00  6.145E+00  1.844E-01  1.518E+00
   1    5   10     4     1    1.0000E+01  9.0525E-01   9.0947E+00  0.000E+00  0.000E+00  0.000E+00  1.07835E+03  6.210E-01  1.000E+01  2.500E-01  1.207E+00
   1    5    9     4     2    9.0947E+00  1.7835E+00   7.3113E+00  0.000E+00  0.000E+00  0.000E+00  1.07148E+03  5.670E-01  1.000E+01  5.000E-01  1.189E+00
   1    6    8     4     3    7.3113E+00  1.2257E+00   6.0855E+00  0.000E+00  0.000E+00  0.000E+00  1.06368E+03  5.021E-01  1.000E+01  3.500E-01  1.167E+00
   1    6    8     5     1    7.0323E+00  8.9813E-01   6.1342E+00  0.000E+00  0.000E+00  0.000E+00  1.05858E+03  5.802E-01  1.177E+01  4.709E-01  6.358E-01
   1    7    7     5     2    6.1342E+00  1.7955E+00   4.3387E+00  0.000E+00  0.000E+00  0.000E+00  1.05404E+03  5.355E-01  1.026E+01  5.131E-01  1.166E+00
   1    8    7     5     3    4.3387E+00  1.0345E+00   3.3042E+00  0.000E+00  0.000E+00  0.000E+00  1.04973E+03  4.796E-01  8.494E+00  2.973E-01  1.160E+00
   1    8    6     5     4    3.3042E+00  6.3040E-01   2.6738E+00  0.000E+00  0.000E+00  0.000E+00  1.04669E+03  4.401E-01  7.330E+00  1.833E-01  1.147E+00
   1    9    6     6     1    2.6738E+00  1.9461E+00   7.2776E-01  0.000E+00  0.000E+00  0.000E+00  1.04297E+03  2.434E-01  1.200E+01  6.000E-01  1.081E+00
   1   10    7     6     2    7.2776E-01  7.2776E-01   0.0000E+00  0.000E+00  0.000E+00  0.000E+00  1.03821E+03  3.291E-02  1.200E+01  6.000E-01  1.011E+00
   1   11    7     6     3    0.0000E+00  0.0000E+00   0.0000E+00  0.000E+00  0.000E+00  0.000E+00  1.03364E+03  0.000E+00  1.200E+01  6.000E-01  1.000E+00
   1   12    7     6     4    0.0000E+00  0.0000E+00   0.0000E+00  0.000E+00  0.000E+00  0.000E+00  1.02909E+03  0.000E+00  1.200E+01  6.000E-01  2.716E-01
   1   13    7     6     5    0.0000E+00 -7.9935E-01   7.9935E-01  0.000E+00  0.000E+00  0.000E+00  1.02591E+03  0.000E+00  1.200E+01  2.400E-01 -1.110E+00
   1   14    9     7     1    1.5000E+02  2.0452E+00   1.4795E+02  0.000E+00  0.000E+00  0.000E+00  1.03987E+03  2.286E+00  5.529E+01  5.592E+00  1.219E-01
   1   13    8     7     2    1.4795E+02  3.0081E+00   1.4495E+02  0.000E+00  0.000E+00  0.000E+00  1.03477E+03  2.272E+00  5.523E+01  6.144E+00  1.632E-01
   1   13    7     7     3    1.4495E+02  2.4399E+00   1.4251E+02  0.000E+00  0.000E+00  0.000E+00  1.02968E+03  2.258E+00  5.516E+01  5.578E+00  1.458E-01
   1   13    6     8     1    1.4331E+02  7.3685E-01   1.4257E+02  0.000E+00  0.000E+00  0.000E+00  1.02464E+03  2.766E+00  4.011E+01  4.088E+00  6.009E-02
   1   13    5     8     2    1.4257E+02 -2.0604E+00   1.4463E+02  0.000E+00  0.000E+00  0.000E+00  1.01840E+03  2.771E+00  4.018E+01  4.095E+00 -1.677E-01
   1   13    4     8     3    1.4463E+02 -3.7865E+00   1.4842E+02  0.000E+00  0.000E+00  0.000E+00  1.01217E+03  2.792E+00  4.049E+01  4.126E+00 -3.059E-01
   1   13    3     8     4    1.4842E+02 -4.0308E+00   1.5245E+02  0.000E+00  0.000E+00  0.000E+00  1.00594E+03  2.820E+00  4.089E+01  4.167E+00 -3.225E-01
   1   13    2     8     5    1.5245E+02 -2.0773E+00   1.5452E+02  0.000E+00  0.000E+00  0.000E+00  9.99716E+02  2.841E+00  4.120E+01  4.198E+00 -1.649E-01
   1   13    1     8     6    1.5452E+02 -5.1141E-01   1.5504E+02  0.000E+00  0.000E+00  0.000E+00  9.94725E+02  2.850E+00  4.133E+01  2.527E+00 -6.746E-02



1
  VOLUMETRIC BUDGET FOR ENTIRE MODEL AT END OF TIME STEP  5 IN STRESS PERIOD  10
  ------------------------------------------------------------------------------

     CUMULATIVE VOLUMES      L**3       RATES FOR THIS TIME STEP      L**3/T
     ------------------                 ------------------------

           IN:                                      IN:
           ---                                      ---
             STORAGE =    74671888.0000               STORAGE =           1.2147
       CONSTANT HEAD =           0.0000         CONSTANT HEAD =           0.0000
               WELLS =           0.0000                 WELLS =           0.0000
     HEAD DEP BOUNDS =     5046279.0000       HEAD DEP BOUNDS =           0.2090
        UZF RECHARGE =   311875424.0000          UZF RECHARGE =          12.3991
               GW ET =           0.0000                 GW ET =           0.0000
     SURFACE LEAKAGE =           0.0000       SURFACE LEAKAGE =           0.0000
      STREAM LEAKAGE =  1042275392.0000        STREAM LEAKAGE =          43.2300

            TOTAL IN =  1433869056.0000              TOTAL IN =          57.0528

          OUT:                                     OUT:
          ----                                     ----
             STORAGE =   372153920.0000               STORAGE =          25.2997
       CONSTANT HEAD =           0.0000         CONSTANT HEAD =           0.0000
               WELLS =   315359968.0000                 WELLS =           0.0000
     HEAD DEP BOUNDS =     6366939.5000       HEAD DEP BOUNDS =           0.2632
        UZF RECHARGE =           0.0000          UZF RECHARGE =           0.0000
               GW ET =   414513824.0000                 GW ET =          18.2627
     SURFACE LEAKAGE =           0.0000       SURFACE LEAKAGE =           0.0000
      STREAM LEAKAGE =   325228480.0000        STREAM LEAKAGE =          13.2657

           TOTAL OUT =  1433623040.0000             TOTAL OUT =          57.0913

            IN - OUT =      246016.0000              IN - OUT =      -3.8548E-02

 PERCENT DISCREPANCY =           0.02     PERCENT DISCREPANCY =          -0.07






          TIME SUMMARY AT END OF TIME STEP   5 IN STRESS PERIOD   10
                    SECONDS     MINUTES      HOURS       DAYS        YEARS
                    -----------------------------------------------------------
   TIME STEP LENGTH 1.21100E+05  2018.3      33.639      1.4016     3.83743E-03
 STRESS PERIOD TIME 5.04972E+05  8416.2      140.27      5.8446     1.60016E-02
         TOTAL TIME 2.41570E+07 4.02616E+05  6710.3      279.59     0.76549    
1
 
 SOLVING FOR HEAD 
     9 ITERATIONS FOR TIME STEP   6 IN STRESS PERIOD   10

 MAXIMUM HEAD CHANGE FOR EACH ITERATION:

    HEAD CHANGE   HEAD CHANGE   HEAD CHANGE   HEAD CHANGE   HEAD CHANGE
  LAYER,ROW,COL LAYER,ROW,COL LAYER,ROW,COL LAYER,ROW,COL LAYER,ROW,COL
 ----------------------------------------------------------------------
     0.2693E-01    0.1332E-01    0.6721E-02    0.3331E-02    0.1660E-02
  (  1,  8,  4) (  1,  5,  1) (  1,  5,  1) (  1,  5,  1) (  1,  5,  1)
     0.8285E-03    0.4137E-03    0.2268E-03    0.1156E-03
  (  1,  5,  1) (  1,  5,  1) (  1,  6,  1) (  1,  5,  1)


 NO OUTPUT CONTROL FOR STRESS PERIOD   10   TIME STEP   6
 
 SOLVING FOR HEAD 
     9 ITERATIONS FOR TIME STEP   7 IN STRESS PERIOD   10

 MAXIMUM HEAD CHANGE FOR EACH ITERATION:

    HEAD CHANGE   HEAD CHANGE   HEAD CHANGE   HEAD CHANGE   HEAD CHANGE
  LAYER,ROW,COL LAYER,ROW,COL LAYER,ROW,COL LAYER,ROW,COL LAYER,ROW,COL
 ----------------------------------------------------------------------
     0.2931E-01    0.1376E-01    0.6759E-02    0.3355E-02    0.1672E-02
  (  1,  8,  4) (  1,  5,  1) (  1,  5,  1) (  1,  5,  1) (  1,  5,  1)
     0.7896E-03    0.4306E-03    0.2483E-03    0.1261E-03
  (  1,  5,  1) (  1,  5,  1) (  1,  6,  1) (  1,  5,  1)


 NO OUTPUT CONTROL FOR STRESS PERIOD   10   TIME STEP   7
 
 SOLVING FOR HEAD 
     8 ITERATIONS FOR TIME STEP   8 IN STRESS PERIOD   10

 MAXIMUM HEAD CHANGE FOR EACH ITERATION:

    HEAD CHANGE   HEAD CHANGE   HEAD CHANGE   HEAD CHANGE   HEAD CHANGE
  LAYER,ROW,COL LAYER,ROW,COL LAYER,ROW,COL LAYER,ROW,COL LAYER,ROW,COL
 ----------------------------------------------------------------------
     0.3179E-01    0.1477E-01    0.7259E-02    0.3554E-02    0.1811E-02
  (  1,  8,  4) (  1,  5,  1) (  1,  5,  1) (  1,  5,  1) (  1,  5,  1)
     0.8628E-03    0.4722E-03    0.1947E-03
  (  1,  5,  1) (  1,  5,  1) (  1,  5,  1)


 NO OUTPUT CONTROL FOR STRESS PERIOD   10   TIME STEP   8
 
 SOLVING FOR HEAD 
     9 ITERATIONS FOR TIME STEP   9 IN STRESS PERIOD   10

 MAXIMUM HEAD CHANGE FOR EACH ITERATION:

    HEAD CHANGE   HEAD CHANGE   HEAD CHANGE   HEAD CHANGE   HEAD CHANGE
  LAYER,ROW,COL LAYER,ROW,COL LAYER,ROW,COL LAYER,ROW,COL LAYER,ROW,COL
 ----------------------------------------------------------------------
     0.3454E-01    0.1607E-01    0.7944E-02    0.3899E-02    0.1935E-02
  (  1,  8,  4) (  1,  5,  1) (  1,  5,  1) (  1,  5,  1) (  1,  5,  1)
     0.9370E-03    0.4625E-03    0.2572E-03    0.1065E-03
  (  1,  5,  1) (  1,  5,  1) (  1,  5,  1) (  1,  5,  1)


 NO OUTPUT CONTROL FOR STRESS PERIOD   10   TIME STEP   9
 
 SOLVING FOR HEAD 
     9 ITERATIONS FOR TIME STEP  10 IN STRESS PERIOD   10

 MAXIMUM HEAD CHANGE FOR EACH ITERATION:

    HEAD CHANGE   HEAD CHANGE   HEAD CHANGE   HEAD CHANGE   HEAD CHANGE
  LAYER,ROW,COL LAYER,ROW,COL LAYER,ROW,COL LAYER,ROW,COL LAYER,ROW,COL
 ----------------------------------------------------------------------
     0.3751E-01    0.1577E-01    0.7689E-02    0.3715E-02    0.1771E-02
  (  1,  8,  4) (  1,  5,  1) (  1,  5,  1) (  1,  5,  1) (  1,  5,  1)
     0.8980E-03    0.4212E-03    0.2052E-03    0.1016E-03
  (  1,  5,  1) (  1,  5,  1) (  1,  5,  1) (  1,  5,  1)


 OUTPUT CONTROL FOR STRESS PERIOD   10   TIME STEP  10
    PRINT BUDGET
    SAVE BUDGET

  HEAD DEP BOUNDS   PERIOD   10   STEP  10
 BOUNDARY      1   LAYER   1   ROW    13   COL     1   RATE   -0.263168    
 BOUNDARY      2   LAYER   1   ROW    14   COL     9   RATE    0.208978    
 UBDSV3 SAVING "           GW ET" ON UNIT  61 AT TIME STEP 10, STRESS PERIOD  10
 UBDSV3 SAVING "    UZF RECHARGE" ON UNIT  61 AT TIME STEP 10, STRESS PERIOD  10
 UBDSV3 SAVING " SURFACE LEAKAGE" ON UNIT  61 AT TIME STEP 10, STRESS PERIOD  10


UNSATURATED ZONE PACKAGE VOLUMETRIC BUDGET FOR  TIME STEP   10 STRESS PERIOD   10
  ------------------------------------------------------------------------------



     CUMULATIVE VOLUMES      L**3       RATES FOR THIS TIME STEP      L**3/T
     ------------------                 ------------------------

           IN:                                      IN:
           ---                                      ---
        INFILTRATION =  1470043439.0542          INFILTRATION =          16.9500

          OUT:                                     OUT:
          ----                                     ----
              UZF ET =  1859063401.6417                UZF ET =          56.5422
        UZF RECHARGE =   321470319.9342          UZF RECHARGE =          11.3745

            IN - OUT =  -710490282.5218              IN - OUT =         -50.9667

          STORAGE:                                 STORAGE:
          --------                                 --------
      STORAGE CHANGE =  -710287412.0214        STORAGE CHANGE =         -50.9653

 PERCENT DISCREPANCY IS DIFFERENCE BETWEEN IN-OUT MINUS CHANGE IN STORAGE
 DIVIDED BY THE AVERAGE OF IN AND OUT TIMES 100

 PERCENT DISCREPANCY =           0.00     PERCENT DISCREPANCY =           0.00









 STREAM LISTING     PERIOD     10   STEP       10

 LAYER ROW COL. STREAM  RCH.  FLOW INTO     FLOW TO   FLOW OUT OF   OVRLND.     DIRECT     STREAM       STREAM     STREAM     STREAM   STREAMBED  STREAMBED
                SEG.NO.  NO.  STRM. RCH.    AQUIFER    STRM. RCH.    RUNOFF     PRECIP       ET          HEAD       DEPTH      WIDTH   CONDCTNC.   GRADIENT

   1    1    1     1     1    2.5000E+01  1.0617E+00   2.3938E+01  0.000E+00  0.000E+00  0.000E+00  1.09422E+03  1.172E+00  1.296E+01  5.830E-01  6.070E-01
   1    2    2     1     2    2.3938E+01  3.0654E+00   2.0873E+01  0.000E+00  0.000E+00  0.000E+00  1.08920E+03  1.140E+00  1.253E+01  8.771E-01  1.165E+00
   1    3    3     1     3    2.0873E+01  2.9026E+00   1.7970E+01  0.000E+00  0.000E+00  0.000E+00  1.08351E+03  1.091E+00  1.183E+01  7.096E-01  1.364E+00
   1    3    4     1     4    1.7970E+01  2.4654E+00   1.5505E+01  0.000E+00  0.000E+00  0.000E+00  1.07845E+03  1.045E+00  1.098E+01  6.095E-01  1.348E+00
   1    4    5     2     1    5.5049E+00  2.6618E+00   2.8431E+00  0.000E+00  0.000E+00  0.000E+00  1.07235E+03  4.125E-01  1.200E+01  7.800E-01  1.138E+00
   1    5    6     2     2    2.8431E+00  1.9527E+00   8.9040E-01  0.000E+00  0.000E+00  0.000E+00  1.06676E+03  2.546E-01  1.200E+01  6.000E-01  1.085E+00
   1    6    6     2     3    8.9040E-01  8.9040E-01   0.0000E+00  0.000E+00  0.000E+00  0.000E+00  1.06183E+03  3.673E-02  1.200E+01  6.000E-01  1.012E+00
   1    7    6     2     4    0.0000E+00  0.0000E+00   0.0000E+00  0.000E+00  0.000E+00  0.000E+00  1.05708E+03  0.000E+00  1.200E+01  6.000E-01  1.000E+00
   1    8    6     2     5    0.0000E+00  0.0000E+00   0.0000E+00  0.000E+00  0.000E+00  0.000E+00  1.05236E+03  0.000E+00  1.200E+01  6.000E-01  1.000E+00
   1    3    5     3     1    1.0000E+01  2.8252E+00   7.1748E+00  0.000E+00  0.000E+00  0.000E+00  1.07555E+03  1.909E+00  9.636E+00  7.227E-01  1.955E+00
   1    3    6     3     2    7.1748E+00  1.7854E+00   5.3894E+00  0.000E+00  0.000E+00  0.000E+00  1.07264E+03  1.727E+00  8.909E+00  6.682E-01  1.336E+00
   1    3    7     3     3    5.3894E+00  8.2847E-01   4.5609E+00  0.000E+00  0.000E+00  0.000E+00  1.06987E+03  1.555E+00  8.218E+00  5.547E-01  7.467E-01
   1    4    8     3     4    4.5609E+00  1.5569E+00   3.0041E+00  0.000E+00  0.000E+00  0.000E+00  1.06682E+03  1.364E+00  7.455E+00  6.709E-01  1.160E+00
   1    5    8     3     5    3.0041E+00  1.5790E+00   1.4251E+00  0.000E+00  0.000E+00  0.000E+00  1.06362E+03  1.164E+00  6.655E+00  4.991E-01  1.582E+00
   1    6    8     3     6    1.4251E+00  5.5980E-01   8.6528E-01  0.000E+00  0.000E+00  0.000E+00  1.06158E+03  1.036E+00  6.145E+00  1.844E-01  1.518E+00
   1    5   10     4     1    1.0000E+01  9.0525E-01   9.0947E+00  0.000E+00  0.000E+00  0.000E+00  1.07835E+03  6.210E-01  1.000E+01  2.500E-01  1.207E+00
   1    5    9     4     2    9.0947E+00  1.7835E+00   7.3113E+00  0.000E+00  0.000E+00  0.000E+00  1.07148E+03  5.670E-01  1.000E+01  5.000E-01  1.189E+00
   1    6    8     4     3    7.3113E+00  1.2257E+00   6.0855E+00  0.000E+00  0.000E+00  0.000E+00  1.06368E+03  5.021E-01  1.000E+01  3.500E-01  1.167E+00
   1    6    8     5     1    6.9508E+00  8.8377E-01   6.0671E+00  0.000E+00  0.000E+00  0.000E+00  1.05858E+03  5.779E-01  1.169E+01  4.677E-01  6.299E-01
   1    7    7     5     2    6.0671E+00  1.7654E+00   4.3017E+00  0.000E+00  0.000E+00  0.000E+00  1.05403E+03  5.337E-01  1.020E+01  5.100E-01  1.154E+00
   1    8    7     5     3    4.3017E+00  1.0285E+00   3.2732E+00  0.000E+00  0.000E+00  0.000E+00  1.04973E+03  4.781E-01  8.449E+00  2.957E-01  1.159E+00
   1    8    6     5     4    3.2732E+00  6.2644E-01   2.6467E+00  0.000E+00  0.000E+00  0.000E+00  1.04669E+03  4.386E-01  7.287E+00  1.822E-01  1.146E+00
   1    9    6     6     1    2.6467E+00  1.9447E+00   7.0203E-01  0.000E+00  0.000E+00  0.000E+00  1.04297E+03  2.412E-01  1.200E+01  6.000E-01  1.080E+00
   1   10    7     6     2    7.0203E-01  7.0203E-01   0.0000E+00  0.000E+00  0.000E+00  0.000E+00  1.03821E+03  3.221E-02  1.200E+01  6.000E-01  1.011E+00
   1   11    7     6     3    0.0000E+00  0.0000E+00   0.0000E+00  0.000E+00  0.000E+00  0.000E+00  1.03364E+03  0.000E+00  1.200E+01  6.000E-01  1.000E+00
   1   12    7     6     4    0.0000E+00  0.0000E+00   0.0000E+00  0.000E+00  0.000E+00  0.000E+00  1.02909E+03  0.000E+00  1.200E+01  6.000E-01  2.694E-01
   1   13    7     6     5    0.0000E+00 -7.9923E-01   7.9923E-01  0.000E+00  0.000E+00  0.000E+00  1.02591E+03  0.000E+00  1.200E+01  2.400E-01 -1.110E+00
   1   14    9     7     1    1.5000E+02  2.0464E+00   1.4795E+02  0.000E+00  0.000E+00  0.000E+00  1.03987E+03  2.286E+00  5.529E+01  5.592E+00  1.220E-01
   1   13    8     7     2    1.4795E+02  3.0115E+00   1.4494E+02  0.000E+00  0.000E+00  0.000E+00  1.03477E+03  2.272E+00  5.523E+01  6.144E+00  1.634E-01
   1   13    7     7     3    1.4494E+02  2.4425E+00   1.4250E+02  0.000E+00  0.000E+00  0.000E+00  1.02968E+03  2.258E+00  5.516E+01  5.578E+00  1.460E-01
   1   13    6     8     1    1.4330E+02  7.3766E-01   1.4256E+02  0.000E+00  0.000E+00  0.000E+00  1.02464E+03  2.766E+00  4.011E+01  4.087E+00  6.016E-02
   1   13    5     8     2    1.4256E+02 -2.0650E+00   1.4463E+02  0.000E+00  0.000E+00  0.000E+00  1.01840E+03  2.771E+00  4.018E+01  4.095E+00 -1.681E-01
   1   13    4     8     3    1.4463E+02 -3.7858E+00   1.4841E+02  0.000E+00  0.000E+00  0.000E+00  1.01217E+03  2.792E+00  4.049E+01  4.126E+00 -3.059E-01
   1   13    3     8     4    1.4841E+02 -4.0300E+00   1.5244E+02  0.000E+00  0.000E+00  0.000E+00  1.00594E+03  2.820E+00  4.089E+01  4.167E+00 -3.224E-01
   1   13    2     8     5    1.5244E+02 -2.0761E+00   1.5452E+02  0.000E+00  0.000E+00  0.000E+00  9.99716E+02  2.841E+00  4.120E+01  4.198E+00 -1.648E-01
   1   13    1     8     6    1.5452E+02 -5.0623E-01   1.5502E+02  0.000E+00  0.000E+00  0.000E+00  9.94725E+02  2.850E+00  4.133E+01  2.527E+00 -6.678E-02



1
  VOLUMETRIC BUDGET FOR ENTIRE MODEL AT END OF TIME STEP 10 IN STRESS PERIOD  10
  ------------------------------------------------------------------------------

     CUMULATIVE VOLUMES      L**3       RATES FOR THIS TIME STEP      L**3/T
     ------------------                 ------------------------

           IN:                                      IN:
           ---                                      ---
             STORAGE =    75749560.0000               STORAGE =           1.3480
       CONSTANT HEAD =           0.0000         CONSTANT HEAD =           0.0000
               WELLS =           0.0000                 WELLS =           0.0000
     HEAD DEP BOUNDS =     5216230.5000       HEAD DEP BOUNDS =           0.2090
        UZF RECHARGE =   321470464.0000          UZF RECHARGE =          11.3745
               GW ET =           0.0000                 GW ET =           0.0000
     SURFACE LEAKAGE =           0.0000       SURFACE LEAKAGE =           0.0000
      STREAM LEAKAGE =  1077437568.0000        STREAM LEAKAGE =          43.2381

            TOTAL IN =  1479873792.0000              TOTAL IN =          56.1695

          OUT:                                     OUT:
          ----                                     ----
             STORAGE =   392285152.0000               STORAGE =          24.3621
       CONSTANT HEAD =           0.0000         CONSTANT HEAD =           0.0000
               WELLS =   315359968.0000                 WELLS =           0.0000
     HEAD DEP BOUNDS =     6580988.5000       HEAD DEP BOUNDS =           0.2632
        UZF RECHARGE =           0.0000          UZF RECHARGE =           0.0000
               GW ET =   429374976.0000                 GW ET =          18.2810
     SURFACE LEAKAGE =           0.0000       SURFACE LEAKAGE =           0.0000
      STREAM LEAKAGE =   336016288.0000        STREAM LEAKAGE =          13.2624

           TOTAL OUT =  1479617408.0000             TOTAL OUT =          56.1686

            IN - OUT =      256384.0000              IN - OUT =       9.0027E-04

 PERCENT DISCREPANCY =           0.02     PERCENT DISCREPANCY =           0.00






          TIME SUMMARY AT END OF TIME STEP  10 IN STRESS PERIOD   10
                    SECONDS     MINUTES      HOURS       DAYS        YEARS
                    -----------------------------------------------------------
   TIME STEP LENGTH 1.95033E+05  3250.6      54.176      2.2573     6.18023E-03
 STRESS PERIOD TIME 1.31823E+06  21971.      366.18      15.257     4.17723E-02
         TOTAL TIME 2.49702E+07 4.16170E+05  6936.2      289.01     0.79126    
1
 
 SOLVING FOR HEAD 
     9 ITERATIONS FOR TIME STEP  11 IN STRESS PERIOD   10

 MAXIMUM HEAD CHANGE FOR EACH ITERATION:

    HEAD CHANGE   HEAD CHANGE   HEAD CHANGE   HEAD CHANGE   HEAD CHANGE
  LAYER,ROW,COL LAYER,ROW,COL LAYER,ROW,COL LAYER,ROW,COL LAYER,ROW,COL
 ----------------------------------------------------------------------
     0.4063E-01    0.1607E-01    0.7804E-02    0.3755E-02    0.1815E-02
  (  1,  8,  4) (  1,  5,  1) (  1,  5,  1) (  1,  5,  1) (  1,  5,  1)
     0.8943E-03    0.4447E-03    0.2218E-03    0.1111E-03
  (  1,  5,  1) (  1,  5,  1) (  1,  5,  1) (  1,  5,  1)


 NO OUTPUT CONTROL FOR STRESS PERIOD   10   TIME STEP  11
 
 SOLVING FOR HEAD 
    10 ITERATIONS FOR TIME STEP  12 IN STRESS PERIOD   10

 MAXIMUM HEAD CHANGE FOR EACH ITERATION:

    HEAD CHANGE   HEAD CHANGE   HEAD CHANGE   HEAD CHANGE   HEAD CHANGE
  LAYER,ROW,COL LAYER,ROW,COL LAYER,ROW,COL LAYER,ROW,COL LAYER,ROW,COL
 ----------------------------------------------------------------------
     0.4914E-01    0.2446E-01    0.1221E-01    0.6025E-02    0.3034E-02
  (  1,  7,  1) (  1,  7,  1) (  1,  7,  1) (  1,  7,  1) (  1,  7,  1)
     0.1485E-02    0.7354E-03    0.3665E-03    0.2195E-03    0.1168E-03
  (  1,  7,  1) (  1,  7,  1) (  1,  7,  1) (  1,  7,  1) (  1,  7,  1)


 NO OUTPUT CONTROL FOR STRESS PERIOD   10   TIME STEP  12
 
 SOLVING FOR HEAD 
     9 ITERATIONS FOR TIME STEP  13 IN STRESS PERIOD   10

 MAXIMUM HEAD CHANGE FOR EACH ITERATION:

    HEAD CHANGE   HEAD CHANGE   HEAD CHANGE   HEAD CHANGE   HEAD CHANGE
  LAYER,ROW,COL LAYER,ROW,COL LAYER,ROW,COL LAYER,ROW,COL LAYER,ROW,COL
 ----------------------------------------------------------------------
     0.5146E-01    0.2557E-01    0.1259E-01    0.6217E-02    0.3092E-02
  (  1,  7,  1) (  1,  7,  1) (  1,  7,  1) (  1,  7,  1) (  1,  7,  1)
     0.1503E-02    0.7824E-03    0.3977E-03    0.1596E-03
  (  1,  7,  1) (  1,  7,  1) (  1,  7,  1) (  1,  7,  1)


 NO OUTPUT CONTROL FOR STRESS PERIOD   10   TIME STEP  13
 
 SOLVING FOR HEAD 
     9 ITERATIONS FOR TIME STEP  14 IN STRESS PERIOD   10

 MAXIMUM HEAD CHANGE FOR EACH ITERATION:

    HEAD CHANGE   HEAD CHANGE   HEAD CHANGE   HEAD CHANGE   HEAD CHANGE
  LAYER,ROW,COL LAYER,ROW,COL LAYER,ROW,COL LAYER,ROW,COL LAYER,ROW,COL
 ----------------------------------------------------------------------
     0.5440E-01    0.2688E-01    0.1324E-01    0.6536E-02    0.3163E-02
  (  1,  7,  1) (  1,  7,  1) (  1,  7,  1) (  1,  7,  1) (  1,  7,  1)
     0.1604E-02    0.7630E-03    0.4171E-03    0.1719E-03
  (  1,  7,  1) (  1,  7,  1) (  1,  7,  1) (  1,  7,  1)


 NO OUTPUT CONTROL FOR STRESS PERIOD   10   TIME STEP  14
 
 SOLVING FOR HEAD 
     9 ITERATIONS FOR TIME STEP  15 IN STRESS PERIOD   10

 MAXIMUM HEAD CHANGE FOR EACH ITERATION:

    HEAD CHANGE   HEAD CHANGE   HEAD CHANGE   HEAD CHANGE   HEAD CHANGE
  LAYER,ROW,COL LAYER,ROW,COL LAYER,ROW,COL LAYER,ROW,COL LAYER,ROW,COL
 ----------------------------------------------------------------------
     0.5494E-01    0.2712E-01    0.1339E-01    0.6562E-02    0.3254E-02
  (  1,  7,  1) (  1,  7,  1) (  1,  7,  1) (  1,  7,  1) (  1,  7,  1)
     0.1622E-02    0.8090E-03    0.3917E-03    0.1755E-03
  (  1,  7,  1) (  1,  7,  1) (  1, 15,  6) (  1, 15,  6)


 OUTPUT CONTROL FOR STRESS PERIOD   10   TIME STEP  15
    PRINT BUDGET
    PRINT HEAD FOR ALL LAYERS
    SAVE HEAD FOR ALL LAYERS
    SAVE BUDGET

  HEAD DEP BOUNDS   PERIOD   10   STEP  15
 BOUNDARY      1   LAYER   1   ROW    13   COL     1   RATE   -0.263081    
 BOUNDARY      2   LAYER   1   ROW    14   COL     9   RATE    0.209085    
 UBDSV3 SAVING "           GW ET" ON UNIT  61 AT TIME STEP 15, STRESS PERIOD  10
 UBDSV3 SAVING "    UZF RECHARGE" ON UNIT  61 AT TIME STEP 15, STRESS PERIOD  10
 UBDSV3 SAVING " SURFACE LEAKAGE" ON UNIT  61 AT TIME STEP 15, STRESS PERIOD  10


UNSATURATED ZONE PACKAGE VOLUMETRIC BUDGET FOR  TIME STEP   15 STRESS PERIOD   10
  ------------------------------------------------------------------------------



     CUMULATIVE VOLUMES      L**3       RATES FOR THIS TIME STEP      L**3/T
     ------------------                 ------------------------

           IN:                                      IN:
           ---                                      ---
        INFILTRATION =  1492243978.6206          INFILTRATION =          16.9500

          OUT:                                     OUT:
          ----                                     ----
              UZF ET =  1930723870.3888                UZF ET =          52.0326
        UZF RECHARGE =   337020784.4822          UZF RECHARGE =          12.1176

            IN - OUT =  -775500676.2504              IN - OUT =         -47.2002

          STORAGE:                                 STORAGE:
          --------                                 --------
      STORAGE CHANGE =  -775287873.8113        STORAGE CHANGE =         -47.1831

 PERCENT DISCREPANCY IS DIFFERENCE BETWEEN IN-OUT MINUS CHANGE IN STORAGE
 DIVIDED BY THE AVERAGE OF IN AND OUT TIMES 100

 PERCENT DISCREPANCY =           0.00     PERCENT DISCREPANCY =          -0.03









 STREAM LISTING     PERIOD     10   STEP       15

 LAYER ROW COL. STREAM  RCH.  FLOW INTO     FLOW TO   FLOW OUT OF   OVRLND.     DIRECT     STREAM       STREAM     STREAM     STREAM   STREAMBED  STREAMBED
                SEG.NO.  NO.  STRM. RCH.    AQUIFER    STRM. RCH.    RUNOFF     PRECIP       ET          HEAD       DEPTH      WIDTH   CONDCTNC.   GRADIENT

   1    1    1     1     1    2.5000E+01  1.0641E+00   2.3936E+01  0.000E+00  0.000E+00  0.000E+00  1.09422E+03  1.172E+00  1.296E+01  5.830E-01  6.084E-01
   1    2    2     1     2    2.3936E+01  3.0665E+00   2.0869E+01  0.000E+00  0.000E+00  0.000E+00  1.08920E+03  1.140E+00  1.253E+01  8.770E-01  1.165E+00
   1    3    3     1     3    2.0869E+01  2.9023E+00   1.7967E+01  0.000E+00  0.000E+00  0.000E+00  1.08351E+03  1.091E+00  1.183E+01  7.095E-01  1.364E+00
   1    3    4     1     4    1.7967E+01  2.4651E+00   1.5502E+01  0.000E+00  0.000E+00  0.000E+00  1.07845E+03  1.045E+00  1.098E+01  6.095E-01  1.348E+00
   1    4    5     2     1    5.5019E+00  2.6617E+00   2.8402E+00  0.000E+00  0.000E+00  0.000E+00  1.07235E+03  4.124E-01  1.200E+01  7.800E-01  1.137E+00
   1    5    6     2     2    2.8402E+00  1.9526E+00   8.8765E-01  0.000E+00  0.000E+00  0.000E+00  1.06676E+03  2.543E-01  1.200E+01  6.000E-01  1.085E+00
   1    6    6     2     3    8.8765E-01  8.8765E-01   0.0000E+00  0.000E+00  0.000E+00  0.000E+00  1.06183E+03  3.667E-02  1.200E+01  6.000E-01  1.012E+00
   1    7    6     2     4    0.0000E+00  0.0000E+00   0.0000E+00  0.000E+00  0.000E+00  0.000E+00  1.05708E+03  0.000E+00  1.200E+01  6.000E-01  1.000E+00
   1    8    6     2     5    0.0000E+00  0.0000E+00   0.0000E+00  0.000E+00  0.000E+00  0.000E+00  1.05236E+03  0.000E+00  1.200E+01  6.000E-01  1.000E+00
   1    3    5     3     1    1.0000E+01  2.8252E+00   7.1748E+00  0.000E+00  0.000E+00  0.000E+00  1.07555E+03  1.909E+00  9.636E+00  7.227E-01  1.955E+00
   1    3    6     3     2    7.1748E+00  1.8365E+00   5.3383E+00  0.000E+00  0.000E+00  0.000E+00  1.07264E+03  1.727E+00  8.909E+00  6.682E-01  1.374E+00
   1    3    7     3     3    5.3383E+00  8.6729E-01   4.4710E+00  0.000E+00  0.000E+00  0.000E+00  1.06987E+03  1.555E+00  8.218E+00  5.547E-01  7.817E-01
   1    4    8     3     4    4.4710E+00  1.5610E+00   2.9101E+00  0.000E+00  0.000E+00  0.000E+00  1.06682E+03  1.364E+00  7.455E+00  6.709E-01  1.163E+00
   1    5    8     3     5    2.9101E+00  1.5790E+00   1.3311E+00  0.000E+00  0.000E+00  0.000E+00  1.06362E+03  1.164E+00  6.655E+00  4.991E-01  1.582E+00
   1    6    8     3     6    1.3311E+00  5.5980E-01   7.7129E-01  0.000E+00  0.000E+00  0.000E+00  1.06158E+03  1.036E+00  6.145E+00  1.844E-01  1.518E+00
   1    5   10     4     1    1.0000E+01  9.0525E-01   9.0947E+00  0.000E+00  0.000E+00  0.000E+00  1.07835E+03  6.210E-01  1.000E+01  2.500E-01  1.207E+00
   1    5    9     4     2    9.0947E+00  1.7835E+00   7.3113E+00  0.000E+00  0.000E+00  0.000E+00  1.07148E+03  5.670E-01  1.000E+01  5.000E-01  1.189E+00
   1    6    8     4     3    7.3113E+00  1.2257E+00   6.0855E+00  0.000E+00  0.000E+00  0.000E+00  1.06368E+03  5.021E-01  1.000E+01  3.500E-01  1.167E+00
   1    6    8     5     1    6.8568E+00  8.6445E-01   5.9924E+00  0.000E+00  0.000E+00  0.000E+00  1.05858E+03  5.753E-01  1.160E+01  4.640E-01  6.210E-01
   1    7    7     5     2    5.9924E+00  1.7227E+00   4.2697E+00  0.000E+00  0.000E+00  0.000E+00  1.05403E+03  5.317E-01  1.014E+01  5.068E-01  1.133E+00
   1    8    7     5     3    4.2697E+00  1.0233E+00   3.2463E+00  0.000E+00  0.000E+00  0.000E+00  1.04973E+03  4.768E-01  8.409E+00  2.943E-01  1.159E+00
   1    8    6     5     4    3.2463E+00  6.1202E-01   2.6343E+00  0.000E+00  0.000E+00  0.000E+00  1.04669E+03  4.376E-01  7.258E+00  1.815E-01  1.124E+00
   1    9    6     6     1    2.6343E+00  1.9441E+00   6.9027E-01  0.000E+00  0.000E+00  0.000E+00  1.04297E+03  2.401E-01  1.200E+01  6.000E-01  1.080E+00
   1   10    7     6     2    6.9027E-01  6.9027E-01   0.0000E+00  0.000E+00  0.000E+00  0.000E+00  1.03821E+03  3.188E-02  1.200E+01  6.000E-01  1.011E+00
   1   11    7     6     3    0.0000E+00  0.0000E+00   0.0000E+00  0.000E+00  0.000E+00  0.000E+00  1.03364E+03  0.000E+00  1.200E+01  6.000E-01  1.000E+00
   1   12    7     6     4    0.0000E+00  0.0000E+00   0.0000E+00  0.000E+00  0.000E+00  0.000E+00  1.02909E+03  0.000E+00  1.200E+01  6.000E-01  2.667E-01
   1   13    7     6     5    0.0000E+00 -7.9914E-01   7.9914E-01  0.000E+00  0.000E+00  0.000E+00  1.02591E+03  0.000E+00  1.200E+01  2.400E-01 -1.110E+00
   1   14    9     7     1    1.5000E+02  2.0618E+00   1.4794E+02  0.000E+00  0.000E+00  0.000E+00  1.03987E+03  2.286E+00  5.529E+01  5.592E+00  1.229E-01
   1   13    8     7     2    1.4794E+02  3.0285E+00   1.4491E+02  0.000E+00  0.000E+00  0.000E+00  1.03477E+03  2.272E+00  5.523E+01  6.144E+00  1.643E-01
   1   13    7     7     3    1.4491E+02  2.4436E+00   1.4247E+02  0.000E+00  0.000E+00  0.000E+00  1.02968E+03  2.258E+00  5.516E+01  5.578E+00  1.460E-01
   1   13    6     8     1    1.4327E+02  7.0497E-01   1.4256E+02  0.000E+00  0.000E+00  0.000E+00  1.02464E+03  2.766E+00  4.011E+01  4.087E+00  5.749E-02
   1   13    5     8     2    1.4256E+02 -2.0592E+00   1.4462E+02  0.000E+00  0.000E+00  0.000E+00  1.01840E+03  2.771E+00  4.018E+01  4.095E+00 -1.676E-01
   1   13    4     8     3    1.4462E+02 -3.7756E+00   1.4839E+02  0.000E+00  0.000E+00  0.000E+00  1.01217E+03  2.792E+00  4.048E+01  4.126E+00 -3.051E-01
   1   13    3     8     4    1.4839E+02 -4.0095E+00   1.5240E+02  0.000E+00  0.000E+00  0.000E+00  1.00594E+03  2.820E+00  4.088E+01  4.166E+00 -3.208E-01
   1   13    2     8     5    1.5240E+02 -2.0647E+00   1.5447E+02  0.000E+00  0.000E+00  0.000E+00  9.99716E+02  2.841E+00  4.119E+01  4.198E+00 -1.640E-01
   1   13    1     8     6    1.5447E+02 -5.0133E-01   1.5497E+02  0.000E+00  0.000E+00  0.000E+00  9.94725E+02  2.850E+00  4.132E+01  2.526E+00 -6.614E-02



1
              HEAD IN LAYER   1 AT END OF TIME STEP  15 IN STRESS PERIOD   10
  ---------------------------------------------------------------------------

           1       2       3       4       5       6       7       8       9      10
 ...................................................................................
   1  1092.39 1088.64 6999.00 6999.00 6999.00 6999.00 6999.00 6999.00 6999.00 6999.00
   2  1089.05 1085.70 1079.27 6999.00 6999.00 1073.85 1072.79 1070.88 6999.00 6999.00
   3  6999.00 1077.38 1074.49 1070.37 1071.10 1069.89 1068.31 1067.98 6999.00 6999.00
   4  1069.16 1068.59 1066.96 1063.56 1062.41 1061.10 1061.73 1064.49 1063.89 6999.00
   5  1064.71 1061.55 1059.16 1057.46 1057.16 1057.62 1057.45 1059.52 1062.97 1065.37
   6  1059.98 1055.67 1052.95 1051.85 1052.07 1053.21 1054.37 1056.71 1059.49 1063.70
   7  1055.88 1050.01 1047.23 1046.47 1046.98 1048.36 1050.63 1052.96 1054.28 6999.00
   8  6999.00 1042.67 1041.20 1041.00 1041.75 1043.31 1044.99 1047.39 1049.24 6999.00
   9  6999.00 1035.70 1035.17 1035.56 1036.62 1038.37 1039.15 1040.95 1043.81 6999.00
  10  6999.00 1028.61 1029.06 1030.36 1031.70 1033.27 1034.49 1036.40 1040.09 1044.40
  11  6999.00 1019.75 1021.49 1025.10 1027.11 1029.12 1030.60 1032.91 1036.35 6999.00
  12  1001.20 1008.86 1014.12 1019.01 1022.66 1025.88 1028.29 1031.05 1034.89 6999.00
  13   994.92 1000.21 1006.91 1013.08 1018.90 1024.47 1029.24 1034.28 1036.39 6999.00
  14  6999.00 1005.83 1011.45 1016.17 1021.20 1025.89 1030.18 1035.25 1039.50 6999.00
  15  6999.00 6999.00 1018.84 1021.83 1025.57 1028.63 6999.00 6999.00 6999.00 6999.00

 HEAD WILL BE SAVED ON UNIT   58 AT END OF TIME STEP  15, STRESS PERIOD   10
1
  VOLUMETRIC BUDGET FOR ENTIRE MODEL AT END OF TIME STEP 15 IN STRESS PERIOD  10
  ------------------------------------------------------------------------------

     CUMULATIVE VOLUMES      L**3       RATES FOR THIS TIME STEP      L**3/T
     ------------------                 ------------------------

           IN:                                      IN:
           ---                                      ---
             STORAGE =    77490000.0000               STORAGE =           1.2873
       CONSTANT HEAD =           0.0000         CONSTANT HEAD =           0.0000
               WELLS =           0.0000                 WELLS =           0.0000
     HEAD DEP BOUNDS =     5490008.5000       HEAD DEP BOUNDS =           0.2091
        UZF RECHARGE =   337020960.0000          UZF RECHARGE =          12.1176
               GW ET =           0.0000                 GW ET =           0.0000
     SURFACE LEAKAGE =           0.0000       SURFACE LEAKAGE =           0.0000
      STREAM LEAKAGE =  1134063744.0000        STREAM LEAKAGE =          43.2389

            TOTAL IN =  1554064640.0000              TOTAL IN =          56.8530

          OUT:                                     OUT:
          ----                                     ----
             STORAGE =   424605472.0000               STORAGE =          24.7182
       CONSTANT HEAD =           0.0000         CONSTANT HEAD =           0.0000
               WELLS =   315359968.0000                 WELLS =           0.0000
     HEAD DEP BOUNDS =     6925605.0000       HEAD DEP BOUNDS =           0.2631
        UZF RECHARGE =           0.0000          UZF RECHARGE =           0.0000
               GW ET =   453558496.0000                 GW ET =          18.6856
     SURFACE LEAKAGE =           0.0000       SURFACE LEAKAGE =           0.0000
      STREAM LEAKAGE =   353348384.0000        STREAM LEAKAGE =          13.2094

           TOTAL OUT =  1553797888.0000             TOTAL OUT =          56.8763

            IN - OUT =      266752.0000              IN - OUT =      -2.3289E-02

 PERCENT DISCREPANCY =           0.02     PERCENT DISCREPANCY =          -0.04






          TIME SUMMARY AT END OF TIME STEP  15 IN STRESS PERIOD   10
                    SECONDS     MINUTES      HOURS       DAYS        YEARS
                    -----------------------------------------------------------
   TIME STEP LENGTH 3.14103E+05  5235.0      87.251      3.6354     9.95332E-03
 STRESS PERIOD TIME 2.62800E+06  43800.      730.00      30.417     8.32763E-02
         TOTAL TIME 2.62800E+07 4.38000E+05  7300.0      304.17     0.83276    
1
1
                            STRESS PERIOD NO.   11, LENGTH =   2628000.    
                            -----------------------------------------------

                              NUMBER OF TIME STEPS =    15

                               MULTIPLIER FOR DELT =     1.100

                            INITIAL TIME STEP SIZE =   82713.07    

 WELL NO.  LAYER   ROW   COL   STRESS RATE         
 --------------------------------------------------
      1      1      6      4      -3.000    
      2      1      6      5      -3.000    
      3      1      7      4      -3.000    
      4      1      7      5      -3.000    
      5      1      8      4      -3.000    
      6      1      8      5      -3.000    
      7      1      9      4      -3.000    
      8      1      9      5      -3.000    
      9      1     10      4      -3.000    
     10      1     10      5      -3.000    

     10 WELLS

 REUSING NON-PARAMETER GHB CELLS FROM LAST STRESS PERIOD

      2 GHB CELLS

 REUSING STREAM SEGMENT DATA FROM LAST STRESS PERIOD



            AREAL INFILTRATION RATE
 READING ON UNIT   19 WITH FORMAT: (10F4.0)            

            1           2           3           4           5           6           7           8           9          10
 ........................................................................................................................
   1   1.0000E-09  2.0000E-09   0.000       0.000       0.000       0.000       0.000       0.000       0.000       0.000    
   2   2.0000E-09  1.0000E-09  2.0000E-09   0.000       0.000      8.0000E-09  8.0000E-09  5.0000E-09   0.000       0.000    
   3    0.000      5.0000E-09  1.0000E-09  1.0000E-09  8.0000E-09  8.0000E-09  5.0000E-09  5.0000E-09   0.000       0.000    
   4   8.0000E-09  5.0000E-09  1.0000E-09  1.0000E-09  1.0000E-09  1.0000E-09  1.0000E-09  1.0000E-09  2.0000E-09   0.000    
   5   8.0000E-09  5.0000E-09  1.0000E-09  1.0000E-09  1.0000E-09  1.0000E-09  1.0000E-09  1.0000E-09  1.0000E-09  1.0000E-09
   6   8.0000E-09  5.0000E-09  5.0000E-09  2.0000E-09  2.0000E-09  1.0000E-09  1.0000E-09  1.0000E-09  1.0000E-09  5.0000E-09
   7   8.0000E-09  5.0000E-09  5.0000E-09  2.0000E-09  2.0000E-09  1.0000E-09  1.0000E-09  2.0000E-09  2.0000E-09   0.000    
   8    0.000      5.0000E-09  5.0000E-09  2.0000E-09  2.0000E-09  1.0000E-09  1.0000E-09  2.0000E-09  5.0000E-09   0.000    
   9    0.000      5.0000E-09  5.0000E-09  2.0000E-09  2.0000E-09  1.0000E-09  1.0000E-09  2.0000E-09  5.0000E-09   0.000    
  10    0.000      5.0000E-09  5.0000E-09  2.0000E-09  2.0000E-09  1.0000E-09  1.0000E-09  2.0000E-09  5.0000E-09  8.0000E-09
  11    0.000      1.0000E-09  1.0000E-09  1.0000E-09  1.0000E-09  1.0000E-09  1.0000E-09  2.0000E-09  5.0000E-09   0.000    
  12   1.0000E-09  1.0000E-09  1.0000E-09  1.0000E-09  1.0000E-09  1.0000E-09  1.0000E-09  1.0000E-09  2.0000E-09   0.000    
  13   1.0000E-09  1.0000E-09  2.0000E-09  2.0000E-09  2.0000E-09  2.0000E-09  2.0000E-09  1.0000E-09  1.0000E-09   0.000    
  14    0.000      2.0000E-09  5.0000E-09  5.0000E-09  5.0000E-09  5.0000E-09  5.0000E-09  2.0000E-09  1.0000E-09   0.000    
  15    0.000       0.000      8.0000E-09  8.0000E-09  8.0000E-09  8.0000E-09   0.000       0.000       0.000       0.000    

USING ET RATE FROM PREVIOUS STRESS PERIOD. CURRENT PERIOD IS:      11

 USING ET EXTINCTION DEPTH FROM PREVIOUS STRESS PERIOD. CURRENT PERIOD IS:      11

 USING EXTINCTION WATER CONTENT FROM PREVIOUS STRESS PERIOD. CURRENT PERIOD IS:      11
 
 SOLVING FOR HEAD 

     8 ITERATIONS FOR TIME STEP   1 IN STRESS PERIOD   11

 MAXIMUM HEAD CHANGE FOR EACH ITERATION:

    HEAD CHANGE   HEAD CHANGE   HEAD CHANGE   HEAD CHANGE   HEAD CHANGE
  LAYER,ROW,COL LAYER,ROW,COL LAYER,ROW,COL LAYER,ROW,COL LAYER,ROW,COL
 ----------------------------------------------------------------------
    -0.2912E-01    0.7275E-02    0.3620E-02    0.1807E-02    0.8770E-03
  (  1,  6,  5) (  1, 15,  6) (  1, 15,  6) (  1, 15,  6) (  1, 15,  6)
     0.4332E-03    0.2413E-03    0.9982E-04
  (  1, 15,  6) (  1, 15,  6) (  1, 15,  6)


 NO OUTPUT CONTROL FOR STRESS PERIOD   11   TIME STEP   1
 
 SOLVING FOR HEAD 
     8 ITERATIONS FOR TIME STEP   2 IN STRESS PERIOD   11

 MAXIMUM HEAD CHANGE FOR EACH ITERATION:

    HEAD CHANGE   HEAD CHANGE   HEAD CHANGE   HEAD CHANGE   HEAD CHANGE
  LAYER,ROW,COL LAYER,ROW,COL LAYER,ROW,COL LAYER,ROW,COL LAYER,ROW,COL
 ----------------------------------------------------------------------
    -0.3151E-01    0.7974E-02    0.3920E-02    0.1975E-02    0.9620E-03
  (  1,  6,  5) (  1, 15,  6) (  1, 15,  6) (  1, 15,  6) (  1, 15,  6)
     0.4759E-03    0.2086E-03    0.9842E-04
  (  1, 15,  6) (  1, 15,  6) (  1, 15,  6)


 NO OUTPUT CONTROL FOR STRESS PERIOD   11   TIME STEP   2
 
 SOLVING FOR HEAD 
     8 ITERATIONS FOR TIME STEP   3 IN STRESS PERIOD   11

 MAXIMUM HEAD CHANGE FOR EACH ITERATION:

    HEAD CHANGE   HEAD CHANGE   HEAD CHANGE   HEAD CHANGE   HEAD CHANGE
  LAYER,ROW,COL LAYER,ROW,COL LAYER,ROW,COL LAYER,ROW,COL LAYER,ROW,COL
 ----------------------------------------------------------------------
    -0.3351E-01    0.8698E-02    0.4358E-02    0.2119E-02    0.1047E-02
  (  1, 10,  4) (  1, 15,  6) (  1, 15,  6) (  1, 15,  6) (  1, 15,  6)
     0.5212E-03    0.2913E-03    0.1206E-03
  (  1, 15,  6) (  1, 15,  6) (  1, 15,  6)


 NO OUTPUT CONTROL FOR STRESS PERIOD   11   TIME STEP   3
 
 SOLVING FOR HEAD 
     8 ITERATIONS FOR TIME STEP   4 IN STRESS PERIOD   11

 MAXIMUM HEAD CHANGE FOR EACH ITERATION:

    HEAD CHANGE   HEAD CHANGE   HEAD CHANGE   HEAD CHANGE   HEAD CHANGE
  LAYER,ROW,COL LAYER,ROW,COL LAYER,ROW,COL LAYER,ROW,COL LAYER,ROW,COL
 ----------------------------------------------------------------------
    -0.3599E-01    0.9548E-02    0.4721E-02    0.2315E-02    0.1149E-02
  (  1, 10,  4) (  1, 15,  6) (  1, 15,  6) (  1, 15,  6) (  1, 15,  6)
     0.5726E-03    0.3202E-03    0.1326E-03
  (  1, 15,  6) (  1, 15,  6) (  1, 15,  6)


 NO OUTPUT CONTROL FOR STRESS PERIOD   11   TIME STEP   4
 
 SOLVING FOR HEAD 
     8 ITERATIONS FOR TIME STEP   5 IN STRESS PERIOD   11

 MAXIMUM HEAD CHANGE FOR EACH ITERATION:

    HEAD CHANGE   HEAD CHANGE   HEAD CHANGE   HEAD CHANGE   HEAD CHANGE
  LAYER,ROW,COL LAYER,ROW,COL LAYER,ROW,COL LAYER,ROW,COL LAYER,ROW,COL
 ----------------------------------------------------------------------
    -0.3833E-01    0.1048E-01    0.5187E-02    0.2545E-02    0.1263E-02
  (  1, 10,  4) (  1, 15,  6) (  1, 15,  6) (  1, 15,  6) (  1, 15,  6)
     0.6296E-03    0.2767E-03    0.1307E-03
  (  1, 15,  6) (  1, 15,  6) (  1, 15,  6)


 OUTPUT CONTROL FOR STRESS PERIOD   11   TIME STEP   5
    PRINT BUDGET
    SAVE BUDGET

            WELLS   PERIOD   11   STEP   5
 WELL      1   LAYER   1   ROW     6   COL     4   RATE    -3.00000    
 WELL      2   LAYER   1   ROW     6   COL     5   RATE    -3.00000    
 WELL      3   LAYER   1   ROW     7   COL     4   RATE    -3.00000    
 WELL      4   LAYER   1   ROW     7   COL     5   RATE    -3.00000    
 WELL      5   LAYER   1   ROW     8   COL     4   RATE    -3.00000    
 WELL      6   LAYER   1   ROW     8   COL     5   RATE    -3.00000    
 WELL      7   LAYER   1   ROW     9   COL     4   RATE    -3.00000    
 WELL      8   LAYER   1   ROW     9   COL     5   RATE    -3.00000    
 WELL      9   LAYER   1   ROW    10   COL     4   RATE    -3.00000    
 WELL     10   LAYER   1   ROW    10   COL     5   RATE    -3.00000    

  HEAD DEP BOUNDS   PERIOD   11   STEP   5
 BOUNDARY      1   LAYER   1   ROW    13   COL     1   RATE   -0.263060    
 BOUNDARY      2   LAYER   1   ROW    14   COL     9   RATE    0.209138    
 UBDSV3 SAVING "           GW ET" ON UNIT  61 AT TIME STEP  5, STRESS PERIOD  11
 UBDSV3 SAVING "    UZF RECHARGE" ON UNIT  61 AT TIME STEP  5, STRESS PERIOD  11
 UBDSV3 SAVING " SURFACE LEAKAGE" ON UNIT  61 AT TIME STEP  5, STRESS PERIOD  11


UNSATURATED ZONE PACKAGE VOLUMETRIC BUDGET FOR  TIME STEP    5 STRESS PERIOD   11
  ------------------------------------------------------------------------------



     CUMULATIVE VOLUMES      L**3       RATES FOR THIS TIME STEP      L**3/T
     ------------------                 ------------------------

           IN:                                      IN:
           ---                                      ---
        INFILTRATION =  1496523612.7400          INFILTRATION =           8.4750

          OUT:                                     OUT:
          ----                                     ----
              UZF ET =  1955833832.3915                UZF ET =          48.6330
        UZF RECHARGE =   341914665.3410          UZF RECHARGE =           9.5395

            IN - OUT =  -801224884.9925              IN - OUT =         -49.6976

          STORAGE:                                 STORAGE:
          --------                                 --------
      STORAGE CHANGE =  -801012244.2237        STORAGE CHANGE =         -49.6976

 PERCENT DISCREPANCY IS DIFFERENCE BETWEEN IN-OUT MINUS CHANGE IN STORAGE
 DIVIDED BY THE AVERAGE OF IN AND OUT TIMES 100

 PERCENT DISCREPANCY =           0.00     PERCENT DISCREPANCY =           0.00









 STREAM LISTING     PERIOD     11   STEP        5

 LAYER ROW COL. STREAM  RCH.  FLOW INTO     FLOW TO   FLOW OUT OF   OVRLND.     DIRECT     STREAM       STREAM     STREAM     STREAM   STREAMBED  STREAMBED
                SEG.NO.  NO.  STRM. RCH.    AQUIFER    STRM. RCH.    RUNOFF     PRECIP       ET          HEAD       DEPTH      WIDTH   CONDCTNC.   GRADIENT

   1    1    1     1     1    2.5000E+01  1.0653E+00   2.3935E+01  0.000E+00  0.000E+00  0.000E+00  1.09422E+03  1.172E+00  1.296E+01  5.830E-01  6.091E-01
   1    2    2     1     2    2.3935E+01  3.0677E+00   2.0867E+01  0.000E+00  0.000E+00  0.000E+00  1.08920E+03  1.140E+00  1.253E+01  8.770E-01  1.166E+00
   1    3    3     1     3    2.0867E+01  2.9021E+00   1.7965E+01  0.000E+00  0.000E+00  0.000E+00  1.08351E+03  1.091E+00  1.182E+01  7.095E-01  1.364E+00
   1    3    4     1     4    1.7965E+01  2.4650E+00   1.5500E+01  0.000E+00  0.000E+00  0.000E+00  1.07845E+03  1.045E+00  1.098E+01  6.094E-01  1.348E+00
   1    4    5     2     1    5.4999E+00  2.6616E+00   2.8384E+00  0.000E+00  0.000E+00  0.000E+00  1.07235E+03  4.123E-01  1.200E+01  7.800E-01  1.137E+00
   1    5    6     2     2    2.8384E+00  1.9525E+00   8.8587E-01  0.000E+00  0.000E+00  0.000E+00  1.06676E+03  2.542E-01  1.200E+01  6.000E-01  1.085E+00
   1    6    6     2     3    8.8587E-01  8.8587E-01   0.0000E+00  0.000E+00  0.000E+00  0.000E+00  1.06183E+03  3.662E-02  1.200E+01  6.000E-01  1.012E+00
   1    7    6     2     4    0.0000E+00  0.0000E+00   0.0000E+00  0.000E+00  0.000E+00  0.000E+00  1.05708E+03  0.000E+00  1.200E+01  6.000E-01  1.000E+00
   1    8    6     2     5    0.0000E+00  0.0000E+00   0.0000E+00  0.000E+00  0.000E+00  0.000E+00  1.05236E+03  0.000E+00  1.200E+01  6.000E-01  1.000E+00
   1    3    5     3     1    1.0000E+01  2.8252E+00   7.1748E+00  0.000E+00  0.000E+00  0.000E+00  1.07555E+03  1.909E+00  9.636E+00  7.227E-01  1.955E+00
   1    3    6     3     2    7.1748E+00  1.8497E+00   5.3251E+00  0.000E+00  0.000E+00  0.000E+00  1.07264E+03  1.727E+00  8.909E+00  6.682E-01  1.384E+00
   1    3    7     3     3    5.3251E+00  8.7907E-01   4.4460E+00  0.000E+00  0.000E+00  0.000E+00  1.06987E+03  1.555E+00  8.218E+00  5.547E-01  7.923E-01
   1    4    8     3     4    4.4460E+00  1.5621E+00   2.8840E+00  0.000E+00  0.000E+00  0.000E+00  1.06682E+03  1.364E+00  7.455E+00  6.709E-01  1.164E+00
   1    5    8     3     5    2.8840E+00  1.5790E+00   1.3050E+00  0.000E+00  0.000E+00  0.000E+00  1.06362E+03  1.164E+00  6.655E+00  4.991E-01  1.582E+00
   1    6    8     3     6    1.3050E+00  5.5980E-01   7.4518E-01  0.000E+00  0.000E+00  0.000E+00  1.06158E+03  1.036E+00  6.145E+00  1.844E-01  1.518E+00
   1    5   10     4     1    1.0000E+01  9.0525E-01   9.0947E+00  0.000E+00  0.000E+00  0.000E+00  1.07835E+03  6.210E-01  1.000E+01  2.500E-01  1.207E+00
   1    5    9     4     2    9.0947E+00  1.7835E+00   7.3113E+00  0.000E+00  0.000E+00  0.000E+00  1.07148E+03  5.670E-01  1.000E+01  5.000E-01  1.189E+00
   1    6    8     4     3    7.3113E+00  1.2257E+00   6.0855E+00  0.000E+00  0.000E+00  0.000E+00  1.06368E+03  5.021E-01  1.000E+01  3.500E-01  1.167E+00
   1    6    8     5     1    6.8307E+00  8.5820E-01   5.9725E+00  0.000E+00  0.000E+00  0.000E+00  1.05857E+03  5.745E-01  1.158E+01  4.630E-01  6.178E-01
   1    7    7     5     2    5.9725E+00  1.7079E+00   4.2646E+00  0.000E+00  0.000E+00  0.000E+00  1.05403E+03  5.313E-01  1.012E+01  5.061E-01  1.125E+00
   1    8    7     5     3    4.2646E+00  1.0225E+00   3.2421E+00  0.000E+00  0.000E+00  0.000E+00  1.04973E+03  4.766E-01  8.403E+00  2.941E-01  1.159E+00
   1    8    6     5     4    3.2421E+00  6.0419E-01   2.6379E+00  0.000E+00  0.000E+00  0.000E+00  1.04669E+03  4.376E-01  7.258E+00  1.814E-01  1.110E+00
   1    9    6     6     1    2.6379E+00  1.9442E+00   6.9368E-01  0.000E+00  0.000E+00  0.000E+00  1.04297E+03  2.404E-01  1.200E+01  6.000E-01  1.080E+00
   1   10    7     6     2    6.9368E-01  6.9368E-01   0.0000E+00  0.000E+00  0.000E+00  0.000E+00  1.03821E+03  3.198E-02  1.200E+01  6.000E-01  1.011E+00
   1   11    7     6     3    0.0000E+00  0.0000E+00   0.0000E+00  0.000E+00  0.000E+00  0.000E+00  1.03364E+03  0.000E+00  1.200E+01  6.000E-01  1.000E+00
   1   12    7     6     4    0.0000E+00  0.0000E+00   0.0000E+00  0.000E+00  0.000E+00  0.000E+00  1.02909E+03  0.000E+00  1.200E+01  6.000E-01  2.659E-01
   1   13    7     6     5    0.0000E+00 -7.9905E-01   7.9905E-01  0.000E+00  0.000E+00  0.000E+00  1.02591E+03  0.000E+00  1.200E+01  2.400E-01 -1.110E+00
   1   14    9     7     1    1.5000E+02  2.0695E+00   1.4793E+02  0.000E+00  0.000E+00  0.000E+00  1.03987E+03  2.286E+00  5.529E+01  5.592E+00  1.234E-01
   1   13    8     7     2    1.4793E+02  3.0376E+00   1.4489E+02  0.000E+00  0.000E+00  0.000E+00  1.03477E+03  2.272E+00  5.522E+01  6.144E+00  1.648E-01
   1   13    7     7     3    1.4489E+02  2.4452E+00   1.4245E+02  0.000E+00  0.000E+00  0.000E+00  1.02968E+03  2.257E+00  5.516E+01  5.578E+00  1.461E-01
   1   13    6     8     1    1.4325E+02  7.0339E-01   1.4254E+02  0.000E+00  0.000E+00  0.000E+00  1.02464E+03  2.766E+00  4.011E+01  4.087E+00  5.737E-02
   1   13    5     8     2    1.4254E+02 -2.0594E+00   1.4460E+02  0.000E+00  0.000E+00  0.000E+00  1.01840E+03  2.771E+00  4.018E+01  4.094E+00 -1.677E-01
   1   13    4     8     3    1.4460E+02 -3.7780E+00   1.4838E+02  0.000E+00  0.000E+00  0.000E+00  1.01217E+03  2.792E+00  4.048E+01  4.125E+00 -3.053E-01
   1   13    3     8     4    1.4838E+02 -4.0033E+00   1.5238E+02  0.000E+00  0.000E+00  0.000E+00  1.00594E+03  2.820E+00  4.088E+01  4.166E+00 -3.203E-01
   1   13    2     8     5    1.5238E+02 -2.0568E+00   1.5444E+02  0.000E+00  0.000E+00  0.000E+00  9.99716E+02  2.841E+00  4.119E+01  4.197E+00 -1.633E-01
   1   13    1     8     6    1.5444E+02 -5.0041E-01   1.5494E+02  0.000E+00  0.000E+00  0.000E+00  9.94725E+02  2.850E+00  4.132E+01  2.526E+00 -6.603E-02



1
  VOLUMETRIC BUDGET FOR ENTIRE MODEL AT END OF TIME STEP  5 IN STRESS PERIOD  11
  ------------------------------------------------------------------------------

     CUMULATIVE VOLUMES      L**3       RATES FOR THIS TIME STEP      L**3/T
     ------------------                 ------------------------

           IN:                                      IN:
           ---                                      ---
             STORAGE =    88268792.0000               STORAGE =          20.4412
       CONSTANT HEAD =           0.0000         CONSTANT HEAD =           0.0000
               WELLS =           0.0000                 WELLS =           0.0000
     HEAD DEP BOUNDS =     5595607.0000       HEAD DEP BOUNDS =           0.2091
        UZF RECHARGE =   341914848.0000          UZF RECHARGE =           9.5395
               GW ET =           0.0000                 GW ET =           0.0000
     SURFACE LEAKAGE =           0.0000       SURFACE LEAKAGE =           0.0000
      STREAM LEAKAGE =  1155903360.0000        STREAM LEAKAGE =          43.2556

            TOTAL IN =  1591682560.0000              TOTAL IN =          73.4455

          OUT:                                     OUT:
          ----                                     ----
             STORAGE =   430824832.0000               STORAGE =          11.2533
       CONSTANT HEAD =           0.0000         CONSTANT HEAD =           0.0000
               WELLS =   330509088.0000                 WELLS =          30.0000
     HEAD DEP BOUNDS =     7058446.0000       HEAD DEP BOUNDS =           0.2631
        UZF RECHARGE =           0.0000          UZF RECHARGE =           0.0000
               GW ET =   463001216.0000                 GW ET =          18.7016
     SURFACE LEAKAGE =           0.0000       SURFACE LEAKAGE =           0.0000
      STREAM LEAKAGE =   360014272.0000        STREAM LEAKAGE =          13.1969

           TOTAL OUT =  1591407872.0000             TOTAL OUT =          73.4148

            IN - OUT =      274688.0000              IN - OUT =       3.0701E-02

 PERCENT DISCREPANCY =           0.02     PERCENT DISCREPANCY =           0.04






          TIME SUMMARY AT END OF TIME STEP   5 IN STRESS PERIOD   11
                    SECONDS     MINUTES      HOURS       DAYS        YEARS
                    -----------------------------------------------------------
   TIME STEP LENGTH 1.21100E+05  2018.3      33.639      1.4016     3.83743E-03
 STRESS PERIOD TIME 5.04972E+05  8416.2      140.27      5.8446     1.60016E-02
         TOTAL TIME 2.67850E+07 4.46416E+05  7440.3      310.01     0.84876    
1
 
 SOLVING FOR HEAD 
     8 ITERATIONS FOR TIME STEP   6 IN STRESS PERIOD   11

 MAXIMUM HEAD CHANGE FOR EACH ITERATION:

    HEAD CHANGE   HEAD CHANGE   HEAD CHANGE   HEAD CHANGE   HEAD CHANGE
  LAYER,ROW,COL LAYER,ROW,COL LAYER,ROW,COL LAYER,ROW,COL LAYER,ROW,COL
 ----------------------------------------------------------------------
    -0.4175E-01    0.9995E-02    0.4818E-02    0.2373E-02    0.1138E-02
  (  1,  9,  4) (  1, 15,  6) (  1, 15,  6) (  1, 15,  6) (  1, 15,  6)
     0.5592E-03    0.2777E-03    0.1384E-03
  (  1, 15,  6) (  1, 15,  6) (  1, 15,  6)


 NO OUTPUT CONTROL FOR STRESS PERIOD   11   TIME STEP   6
 
 SOLVING FOR HEAD 
     8 ITERATIONS FOR TIME STEP   7 IN STRESS PERIOD   11

 MAXIMUM HEAD CHANGE FOR EACH ITERATION:

    HEAD CHANGE   HEAD CHANGE   HEAD CHANGE   HEAD CHANGE   HEAD CHANGE
  LAYER,ROW,COL LAYER,ROW,COL LAYER,ROW,COL LAYER,ROW,COL LAYER,ROW,COL
 ----------------------------------------------------------------------
    -0.4544E-01    0.1051E-01    0.5111E-02    0.2481E-02    0.1206E-02
  (  1,  9,  4) (  1, 15,  6) (  1, 15,  6) (  1, 15,  6) (  1,  7,  1)
     0.5915E-03    0.3006E-03    0.1513E-03
  (  1, 15,  6) (  1, 15,  6) (  1, 15,  6)


 NO OUTPUT CONTROL FOR STRESS PERIOD   11   TIME STEP   7
 
 SOLVING FOR HEAD 
     8 ITERATIONS FOR TIME STEP   8 IN STRESS PERIOD   11

 MAXIMUM HEAD CHANGE FOR EACH ITERATION:

    HEAD CHANGE   HEAD CHANGE   HEAD CHANGE   HEAD CHANGE   HEAD CHANGE
  LAYER,ROW,COL LAYER,ROW,COL LAYER,ROW,COL LAYER,ROW,COL LAYER,ROW,COL
 ----------------------------------------------------------------------
    -0.4931E-01    0.1142E-01    0.5542E-02    0.2712E-02    0.1294E-02
  (  1,  9,  4) (  1, 15,  6) (  1, 15,  6) (  1, 15,  6) (  1, 15,  6)
     0.6599E-03    0.3324E-03    0.1537E-03
  (  1, 15,  6) (  1, 15,  6) (  1,  7,  1)


 NO OUTPUT CONTROL FOR STRESS PERIOD   11   TIME STEP   8
 
 SOLVING FOR HEAD 
     8 ITERATIONS FOR TIME STEP   9 IN STRESS PERIOD   11

 MAXIMUM HEAD CHANGE FOR EACH ITERATION:

    HEAD CHANGE   HEAD CHANGE   HEAD CHANGE   HEAD CHANGE   HEAD CHANGE
  LAYER,ROW,COL LAYER,ROW,COL LAYER,ROW,COL LAYER,ROW,COL LAYER,ROW,COL
 ----------------------------------------------------------------------
    -0.5339E-01    0.1245E-01    0.6016E-02    0.2911E-02    0.1464E-02
  (  1,  9,  4) (  1, 15,  6) (  1, 15,  6) (  1, 15,  6) (  1, 15,  6)
     0.6785E-03    0.3561E-03    0.1263E-03
  (  1, 15,  6) (  1, 15,  6) (  1, 15,  6)


 NO OUTPUT CONTROL FOR STRESS PERIOD   11   TIME STEP   9
 
 SOLVING FOR HEAD 
     8 ITERATIONS FOR TIME STEP  10 IN STRESS PERIOD   11

 MAXIMUM HEAD CHANGE FOR EACH ITERATION:

    HEAD CHANGE   HEAD CHANGE   HEAD CHANGE   HEAD CHANGE   HEAD CHANGE
  LAYER,ROW,COL LAYER,ROW,COL LAYER,ROW,COL LAYER,ROW,COL LAYER,ROW,COL
 ----------------------------------------------------------------------
    -0.5772E-01    0.1314E-01    0.6386E-02    0.3035E-02    0.1516E-02
  (  1,  9,  4) (  1, 15,  6) (  1, 15,  6) (  1, 15,  6) (  1, 15,  6)
     0.7273E-03    0.3272E-03    0.1866E-03
  (  1, 15,  6) (  1, 15,  6) (  1, 15,  6)


 OUTPUT CONTROL FOR STRESS PERIOD   11   TIME STEP  10
    PRINT BUDGET
    SAVE BUDGET

            WELLS   PERIOD   11   STEP  10
 WELL      1   LAYER   1   ROW     6   COL     4   RATE    -3.00000    
 WELL      2   LAYER   1   ROW     6   COL     5   RATE    -3.00000    
 WELL      3   LAYER   1   ROW     7   COL     4   RATE    -3.00000    
 WELL      4   LAYER   1   ROW     7   COL     5   RATE    -3.00000    
 WELL      5   LAYER   1   ROW     8   COL     4   RATE    -3.00000    
 WELL      6   LAYER   1   ROW     8   COL     5   RATE    -3.00000    
 WELL      7   LAYER   1   ROW     9   COL     4   RATE    -3.00000    
 WELL      8   LAYER   1   ROW     9   COL     5   RATE    -3.00000    
 WELL      9   LAYER   1   ROW    10   COL     4   RATE    -3.00000    
 WELL     10   LAYER   1   ROW    10   COL     5   RATE    -3.00000    

  HEAD DEP BOUNDS   PERIOD   11   STEP  10
 BOUNDARY      1   LAYER   1   ROW    13   COL     1   RATE   -0.263027    
 BOUNDARY      2   LAYER   1   ROW    14   COL     9   RATE    0.209184    
 UBDSV3 SAVING "           GW ET" ON UNIT  61 AT TIME STEP 10, STRESS PERIOD  11
 UBDSV3 SAVING "    UZF RECHARGE" ON UNIT  61 AT TIME STEP 10, STRESS PERIOD  11
 UBDSV3 SAVING " SURFACE LEAKAGE" ON UNIT  61 AT TIME STEP 10, STRESS PERIOD  11


UNSATURATED ZONE PACKAGE VOLUMETRIC BUDGET FOR  TIME STEP   10 STRESS PERIOD   11
  ------------------------------------------------------------------------------



     CUMULATIVE VOLUMES      L**3       RATES FOR THIS TIME STEP      L**3/T
     ------------------                 ------------------------

           IN:                                      IN:
           ---                                      ---
        INFILTRATION =  1503416006.6721          INFILTRATION =           8.4750

          OUT:                                     OUT:
          ----                                     ----
              UZF ET =  1992258944.5892                UZF ET =          42.0446
        UZF RECHARGE =   349323382.0408          UZF RECHARGE =           9.0392

            IN - OUT =  -838166319.9580              IN - OUT =         -42.6088

          STORAGE:                                 STORAGE:
          --------                                 --------
      STORAGE CHANGE =  -837958897.4077        STORAGE CHANGE =         -42.6377

 PERCENT DISCREPANCY IS DIFFERENCE BETWEEN IN-OUT MINUS CHANGE IN STORAGE
 DIVIDED BY THE AVERAGE OF IN AND OUT TIMES 100

 PERCENT DISCREPANCY =           0.00     PERCENT DISCREPANCY =           0.06









 STREAM LISTING     PERIOD     11   STEP       10

 LAYER ROW COL. STREAM  RCH.  FLOW INTO     FLOW TO   FLOW OUT OF   OVRLND.     DIRECT     STREAM       STREAM     STREAM     STREAM   STREAMBED  STREAMBED
                SEG.NO.  NO.  STRM. RCH.    AQUIFER    STRM. RCH.    RUNOFF     PRECIP       ET          HEAD       DEPTH      WIDTH   CONDCTNC.   GRADIENT

   1    1    1     1     1    2.5000E+01  1.0670E+00   2.3933E+01  0.000E+00  0.000E+00  0.000E+00  1.09422E+03  1.172E+00  1.296E+01  5.830E-01  6.100E-01
   1    2    2     1     2    2.3933E+01  3.0691E+00   2.0864E+01  0.000E+00  0.000E+00  0.000E+00  1.08920E+03  1.140E+00  1.253E+01  8.770E-01  1.167E+00
   1    3    3     1     3    2.0864E+01  2.9019E+00   1.7962E+01  0.000E+00  0.000E+00  0.000E+00  1.08351E+03  1.091E+00  1.182E+01  7.094E-01  1.364E+00
   1    3    4     1     4    1.7962E+01  2.4647E+00   1.5497E+01  0.000E+00  0.000E+00  0.000E+00  1.07845E+03  1.045E+00  1.098E+01  6.094E-01  1.348E+00
   1    4    5     2     1    5.4973E+00  2.6614E+00   2.8358E+00  0.000E+00  0.000E+00  0.000E+00  1.07235E+03  4.121E-01  1.200E+01  7.800E-01  1.137E+00
   1    5    6     2     2    2.8358E+00  1.9524E+00   8.8345E-01  0.000E+00  0.000E+00  0.000E+00  1.06676E+03  2.540E-01  1.200E+01  6.000E-01  1.085E+00
   1    6    6     2     3    8.8345E-01  8.8345E-01   0.0000E+00  0.000E+00  0.000E+00  0.000E+00  1.06183E+03  3.656E-02  1.200E+01  6.000E-01  1.012E+00
   1    7    6     2     4    0.0000E+00  0.0000E+00   0.0000E+00  0.000E+00  0.000E+00  0.000E+00  1.05708E+03  0.000E+00  1.200E+01  6.000E-01  1.000E+00
   1    8    6     2     5    0.0000E+00  0.0000E+00   0.0000E+00  0.000E+00  0.000E+00  0.000E+00  1.05236E+03  0.000E+00  1.200E+01  6.000E-01  1.000E+00
   1    3    5     3     1    1.0000E+01  2.8252E+00   7.1748E+00  0.000E+00  0.000E+00  0.000E+00  1.07555E+03  1.909E+00  9.636E+00  7.227E-01  1.955E+00
   1    3    6     3     2    7.1748E+00  1.8661E+00   5.3087E+00  0.000E+00  0.000E+00  0.000E+00  1.07264E+03  1.727E+00  8.909E+00  6.682E-01  1.396E+00
   1    3    7     3     3    5.3087E+00  8.9410E-01   4.4146E+00  0.000E+00  0.000E+00  0.000E+00  1.06987E+03  1.555E+00  8.218E+00  5.547E-01  8.059E-01
   1    4    8     3     4    4.4146E+00  1.5655E+00   2.8491E+00  0.000E+00  0.000E+00  0.000E+00  1.06682E+03  1.364E+00  7.455E+00  6.709E-01  1.167E+00
   1    5    8     3     5    2.8491E+00  1.5790E+00   1.2701E+00  0.000E+00  0.000E+00  0.000E+00  1.06362E+03  1.164E+00  6.655E+00  4.991E-01  1.582E+00
   1    6    8     3     6    1.2701E+00  5.5980E-01   7.1033E-01  0.000E+00  0.000E+00  0.000E+00  1.06158E+03  1.036E+00  6.145E+00  1.844E-01  1.518E+00
   1    5   10     4     1    1.0000E+01  9.0525E-01   9.0947E+00  0.000E+00  0.000E+00  0.000E+00  1.07835E+03  6.210E-01  1.000E+01  2.500E-01  1.207E+00
   1    5    9     4     2    9.0947E+00  1.7835E+00   7.3113E+00  0.000E+00  0.000E+00  0.000E+00  1.07148E+03  5.670E-01  1.000E+01  5.000E-01  1.189E+00
   1    6    8     4     3    7.3113E+00  1.2257E+00   6.0855E+00  0.000E+00  0.000E+00  0.000E+00  1.06368E+03  5.021E-01  1.000E+01  3.500E-01  1.167E+00
   1    6    8     5     1    6.7959E+00  8.4848E-01   5.9474E+00  0.000E+00  0.000E+00  0.000E+00  1.05857E+03  5.736E-01  1.154E+01  4.617E-01  6.125E-01
   1    7    7     5     2    5.9474E+00  1.6871E+00   4.2603E+00  0.000E+00  0.000E+00  0.000E+00  1.05403E+03  5.307E-01  1.010E+01  5.052E-01  1.113E+00
   1    8    7     5     3    4.2603E+00  1.0218E+00   3.2385E+00  0.000E+00  0.000E+00  0.000E+00  1.04973E+03  4.764E-01  8.398E+00  2.939E-01  1.159E+00
   1    8    6     5     4    3.2385E+00  6.0010E-01   2.6384E+00  0.000E+00  0.000E+00  0.000E+00  1.04669E+03  4.375E-01  7.255E+00  1.814E-01  1.103E+00
   1    9    6     6     1    2.6384E+00  1.9443E+00   6.9412E-01  0.000E+00  0.000E+00  0.000E+00  1.04297E+03  2.404E-01  1.200E+01  6.000E-01  1.080E+00
   1   10    7     6     2    6.9412E-01  6.9412E-01   0.0000E+00  0.000E+00  0.000E+00  0.000E+00  1.03821E+03  3.199E-02  1.200E+01  6.000E-01  1.011E+00
   1   11    7     6     3    0.0000E+00  0.0000E+00   0.0000E+00  0.000E+00  0.000E+00  0.000E+00  1.03364E+03  0.000E+00  1.200E+01  6.000E-01  1.000E+00
   1   12    7     6     4    0.0000E+00  0.0000E+00   0.0000E+00  0.000E+00  0.000E+00  0.000E+00  1.02909E+03  0.000E+00  1.200E+01  6.000E-01  2.642E-01
   1   13    7     6     5    0.0000E+00 -7.9935E-01   7.9935E-01  0.000E+00  0.000E+00  0.000E+00  1.02591E+03  0.000E+00  1.200E+01  2.400E-01 -1.110E+00
   1   14    9     7     1    1.5000E+02  2.0762E+00   1.4792E+02  0.000E+00  0.000E+00  0.000E+00  1.03987E+03  2.286E+00  5.529E+01  5.592E+00  1.238E-01
   1   13    8     7     2    1.4792E+02  3.0446E+00   1.4488E+02  0.000E+00  0.000E+00  0.000E+00  1.03477E+03  2.272E+00  5.522E+01  6.144E+00  1.652E-01
   1   13    7     7     3    1.4488E+02  2.4379E+00   1.4244E+02  0.000E+00  0.000E+00  0.000E+00  1.02968E+03  2.257E+00  5.516E+01  5.578E+00  1.457E-01
   1   13    6     8     1    1.4324E+02  7.0446E-01   1.4254E+02  0.000E+00  0.000E+00  0.000E+00  1.02464E+03  2.766E+00  4.011E+01  4.087E+00  5.746E-02
   1   13    5     8     2    1.4254E+02 -2.0646E+00   1.4460E+02  0.000E+00  0.000E+00  0.000E+00  1.01840E+03  2.771E+00  4.018E+01  4.094E+00 -1.681E-01
   1   13    4     8     3    1.4460E+02 -3.7842E+00   1.4839E+02  0.000E+00  0.000E+00  0.000E+00  1.01217E+03  2.792E+00  4.048E+01  4.125E+00 -3.058E-01
   1   13    3     8     4    1.4839E+02 -4.0026E+00   1.5239E+02  0.000E+00  0.000E+00  0.000E+00  1.00594E+03  2.820E+00  4.088E+01  4.166E+00 -3.202E-01
   1   13    2     8     5    1.5239E+02 -2.0500E+00   1.5444E+02  0.000E+00  0.000E+00  0.000E+00  9.99716E+02  2.841E+00  4.119E+01  4.197E+00 -1.628E-01
   1   13    1     8     6    1.5444E+02 -4.9829E-01   1.5494E+02  0.000E+00  0.000E+00  0.000E+00  9.94725E+02  2.850E+00  4.132E+01  2.526E+00 -6.575E-02



1
  VOLUMETRIC BUDGET FOR ENTIRE MODEL AT END OF TIME STEP 10 IN STRESS PERIOD  11
  ------------------------------------------------------------------------------

     CUMULATIVE VOLUMES      L**3       RATES FOR THIS TIME STEP      L**3/T
     ------------------                 ------------------------

           IN:                                      IN:
           ---                                      ---
             STORAGE =   103338320.0000               STORAGE =          17.5962
       CONSTANT HEAD =           0.0000         CONSTANT HEAD =           0.0000
               WELLS =           0.0000                 WELLS =           0.0000
     HEAD DEP BOUNDS =     5765716.0000       HEAD DEP BOUNDS =           0.2092
        UZF RECHARGE =   349323552.0000          UZF RECHARGE =           9.0392
               GW ET =           0.0000                 GW ET =           0.0000
     SURFACE LEAKAGE =           0.0000       SURFACE LEAKAGE =           0.0000
      STREAM LEAKAGE =  1191087488.0000        STREAM LEAKAGE =          43.2631

            TOTAL IN =  1649515008.0000              TOTAL IN =          70.1078

          OUT:                                     OUT:
          ----                                     ----
             STORAGE =   438090240.0000               STORAGE =           7.9254
       CONSTANT HEAD =           0.0000         CONSTANT HEAD =           0.0000
               WELLS =   354906944.0000                 WELLS =          30.0000
     HEAD DEP BOUNDS =     7272364.0000       HEAD DEP BOUNDS =           0.2630
        UZF RECHARGE =           0.0000          UZF RECHARGE =           0.0000
               GW ET =   478225792.0000                 GW ET =          18.7251
     SURFACE LEAKAGE =           0.0000       SURFACE LEAKAGE =           0.0000
      STREAM LEAKAGE =   370747136.0000        STREAM LEAKAGE =          13.1991

           TOTAL OUT =  1649242496.0000             TOTAL OUT =          70.1126

            IN - OUT =      272512.0000              IN - OUT =      -4.8141E-03

 PERCENT DISCREPANCY =           0.02     PERCENT DISCREPANCY =          -0.01






          TIME SUMMARY AT END OF TIME STEP  10 IN STRESS PERIOD   11
                    SECONDS     MINUTES      HOURS       DAYS        YEARS
                    -----------------------------------------------------------
   TIME STEP LENGTH 1.95033E+05  3250.6      54.176      2.2573     6.18023E-03
 STRESS PERIOD TIME 1.31823E+06  21971.      366.18      15.257     4.17723E-02
         TOTAL TIME 2.75982E+07 4.59970E+05  7666.2      319.42     0.87454    
1
 
 SOLVING FOR HEAD 
     9 ITERATIONS FOR TIME STEP  11 IN STRESS PERIOD   11

 MAXIMUM HEAD CHANGE FOR EACH ITERATION:

    HEAD CHANGE   HEAD CHANGE   HEAD CHANGE   HEAD CHANGE   HEAD CHANGE
  LAYER,ROW,COL LAYER,ROW,COL LAYER,ROW,COL LAYER,ROW,COL LAYER,ROW,COL
 ----------------------------------------------------------------------
    -0.6231E-01    0.1956E-01    0.9635E-02    0.4789E-02    0.2356E-02
  (  1,  9,  4) (  1, 15,  5) (  1, 15,  5) (  1, 15,  5) (  1, 15,  5)
     0.1137E-02    0.5601E-03    0.3117E-03    0.1289E-03
  (  1, 15,  5) (  1, 15,  5) (  1, 15,  5) (  1, 15,  5)


 NO OUTPUT CONTROL FOR STRESS PERIOD   11   TIME STEP  11
 
 SOLVING FOR HEAD 
     9 ITERATIONS FOR TIME STEP  12 IN STRESS PERIOD   11

 MAXIMUM HEAD CHANGE FOR EACH ITERATION:

    HEAD CHANGE   HEAD CHANGE   HEAD CHANGE   HEAD CHANGE   HEAD CHANGE
  LAYER,ROW,COL LAYER,ROW,COL LAYER,ROW,COL LAYER,ROW,COL LAYER,ROW,COL
 ----------------------------------------------------------------------
    -0.6701E-01    0.1960E-01    0.9481E-02    0.4603E-02    0.2238E-02
  (  1,  9,  4) (  1, 15,  5) (  1, 15,  5) (  1, 15,  5) (  1, 15,  5)
     0.1106E-02    0.5139E-03    0.2492E-03    0.1231E-03
  (  1, 15,  5) (  1, 15,  5) (  1, 15,  5) (  1, 15,  5)


 NO OUTPUT CONTROL FOR STRESS PERIOD   11   TIME STEP  12
 
 SOLVING FOR HEAD 
     9 ITERATIONS FOR TIME STEP  13 IN STRESS PERIOD   11

 MAXIMUM HEAD CHANGE FOR EACH ITERATION:

    HEAD CHANGE   HEAD CHANGE   HEAD CHANGE   HEAD CHANGE   HEAD CHANGE
  LAYER,ROW,COL LAYER,ROW,COL LAYER,ROW,COL LAYER,ROW,COL LAYER,ROW,COL
 ----------------------------------------------------------------------
    -0.7201E-01    0.1956E-01    0.9461E-02    0.4546E-02    0.2196E-02
  (  1,  8,  4) (  1, 15,  5) (  1, 15,  5) (  1, 15,  5) (  1, 15,  5)
     0.1083E-02    0.5383E-03    0.2684E-03    0.1342E-03
  (  1, 15,  5) (  1, 15,  5) (  1, 15,  5) (  1, 15,  5)


 NO OUTPUT CONTROL FOR STRESS PERIOD   11   TIME STEP  13
 
 SOLVING FOR HEAD 
     9 ITERATIONS FOR TIME STEP  14 IN STRESS PERIOD   11

 MAXIMUM HEAD CHANGE FOR EACH ITERATION:

    HEAD CHANGE   HEAD CHANGE   HEAD CHANGE   HEAD CHANGE   HEAD CHANGE
  LAYER,ROW,COL LAYER,ROW,COL LAYER,ROW,COL LAYER,ROW,COL LAYER,ROW,COL
 ----------------------------------------------------------------------
    -0.7734E-01    0.2262E-01    0.1100E-01    0.5307E-02    0.2570E-02
  (  1,  8,  4) (  1, 10, 10) (  1, 10, 10) (  1, 10, 10) (  1, 10, 10)
     0.1224E-02    0.6002E-03    0.2975E-03    0.1483E-03
  (  1, 10, 10) (  1, 10, 10) (  1, 10, 10) (  1, 10, 10)


 NO OUTPUT CONTROL FOR STRESS PERIOD   11   TIME STEP  14
 
 SOLVING FOR HEAD 
     9 ITERATIONS FOR TIME STEP  15 IN STRESS PERIOD   11

 MAXIMUM HEAD CHANGE FOR EACH ITERATION:

    HEAD CHANGE   HEAD CHANGE   HEAD CHANGE   HEAD CHANGE   HEAD CHANGE
  LAYER,ROW,COL LAYER,ROW,COL LAYER,ROW,COL LAYER,ROW,COL LAYER,ROW,COL
 ----------------------------------------------------------------------
    -0.8298E-01    0.2388E-01    0.1161E-01    0.5639E-02    0.2689E-02
  (  1,  8,  4) (  1, 10, 10) (  1, 10, 10) (  1, 10, 10) (  1, 10, 10)
     0.1318E-02    0.6539E-03    0.3259E-03    0.1627E-03
  (  1, 10, 10) (  1, 10, 10) (  1, 10, 10) (  1, 10, 10)


 OUTPUT CONTROL FOR STRESS PERIOD   11   TIME STEP  15
    PRINT BUDGET
    PRINT HEAD FOR ALL LAYERS
    SAVE HEAD FOR ALL LAYERS
    SAVE BUDGET

            WELLS   PERIOD   11   STEP  15
 WELL      1   LAYER   1   ROW     6   COL     4   RATE    -3.00000    
 WELL      2   LAYER   1   ROW     6   COL     5   RATE    -3.00000    
 WELL      3   LAYER   1   ROW     7   COL     4   RATE    -3.00000    
 WELL      4   LAYER   1   ROW     7   COL     5   RATE    -3.00000    
 WELL      5   LAYER   1   ROW     8   COL     4   RATE    -3.00000    
 WELL      6   LAYER   1   ROW     8   COL     5   RATE    -3.00000    
 WELL      7   LAYER   1   ROW     9   COL     4   RATE    -3.00000    
 WELL      8   LAYER   1   ROW     9   COL     5   RATE    -3.00000    
 WELL      9   LAYER   1   ROW    10   COL     4   RATE    -3.00000    
 WELL     10   LAYER   1   ROW    10   COL     5   RATE    -3.00000    

  HEAD DEP BOUNDS   PERIOD   11   STEP  15
 BOUNDARY      1   LAYER   1   ROW    13   COL     1   RATE   -0.262942    
 BOUNDARY      2   LAYER   1   ROW    14   COL     9   RATE    0.209261    
 UBDSV3 SAVING "           GW ET" ON UNIT  61 AT TIME STEP 15, STRESS PERIOD  11
 UBDSV3 SAVING "    UZF RECHARGE" ON UNIT  61 AT TIME STEP 15, STRESS PERIOD  11
 UBDSV3 SAVING " SURFACE LEAKAGE" ON UNIT  61 AT TIME STEP 15, STRESS PERIOD  11


UNSATURATED ZONE PACKAGE VOLUMETRIC BUDGET FOR  TIME STEP   15 STRESS PERIOD   11
  ------------------------------------------------------------------------------



     CUMULATIVE VOLUMES      L**3       RATES FOR THIS TIME STEP      L**3/T
     ------------------                 ------------------------

           IN:                                      IN:
           ---                                      ---
        INFILTRATION =  1514516276.4553          INFILTRATION =           8.4750

          OUT:                                     OUT:
          ----                                     ----
              UZF ET =  2043538359.1215                UZF ET =          37.3081
        UZF RECHARGE =   361797224.5977          UZF RECHARGE =           9.3107

            IN - OUT =  -890819307.2639              IN - OUT =         -38.1437

          STORAGE:                                 STORAGE:
          --------                                 --------
      STORAGE CHANGE =  -890610599.3247        STORAGE CHANGE =         -38.1436

 PERCENT DISCREPANCY IS DIFFERENCE BETWEEN IN-OUT MINUS CHANGE IN STORAGE
 DIVIDED BY THE AVERAGE OF IN AND OUT TIMES 100

 PERCENT DISCREPANCY =           0.00     PERCENT DISCREPANCY =           0.00









 STREAM LISTING     PERIOD     11   STEP       15

 LAYER ROW COL. STREAM  RCH.  FLOW INTO     FLOW TO   FLOW OUT OF   OVRLND.     DIRECT     STREAM       STREAM     STREAM     STREAM   STREAMBED  STREAMBED
                SEG.NO.  NO.  STRM. RCH.    AQUIFER    STRM. RCH.    RUNOFF     PRECIP       ET          HEAD       DEPTH      WIDTH   CONDCTNC.   GRADIENT

   1    1    1     1     1    2.5000E+01  1.0696E+00   2.3930E+01  0.000E+00  0.000E+00  0.000E+00  1.09422E+03  1.172E+00  1.296E+01  5.830E-01  6.115E-01
   1    2    2     1     2    2.3930E+01  3.0709E+00   2.0860E+01  0.000E+00  0.000E+00  0.000E+00  1.08920E+03  1.140E+00  1.253E+01  8.769E-01  1.167E+00
   1    3    3     1     3    2.0860E+01  2.9015E+00   1.7958E+01  0.000E+00  0.000E+00  0.000E+00  1.08351E+03  1.090E+00  1.182E+01  7.093E-01  1.363E+00
   1    3    4     1     4    1.7958E+01  2.4644E+00   1.5494E+01  0.000E+00  0.000E+00  0.000E+00  1.07845E+03  1.045E+00  1.098E+01  6.093E-01  1.348E+00
   1    4    5     2     1    5.4936E+00  2.6613E+00   2.8323E+00  0.000E+00  0.000E+00  0.000E+00  1.07235E+03  4.119E-01  1.200E+01  7.800E-01  1.137E+00
   1    5    6     2     2    2.8323E+00  1.9522E+00   8.8010E-01  0.000E+00  0.000E+00  0.000E+00  1.06676E+03  2.537E-01  1.200E+01  6.000E-01  1.085E+00
   1    6    6     2     3    8.8010E-01  8.8010E-01   0.0000E+00  0.000E+00  0.000E+00  0.000E+00  1.06183E+03  3.648E-02  1.200E+01  6.000E-01  1.012E+00
   1    7    6     2     4    0.0000E+00  0.0000E+00   0.0000E+00  0.000E+00  0.000E+00  0.000E+00  1.05708E+03  0.000E+00  1.200E+01  6.000E-01  1.000E+00
   1    8    6     2     5    0.0000E+00  0.0000E+00   0.0000E+00  0.000E+00  0.000E+00  0.000E+00  1.05236E+03  0.000E+00  1.200E+01  6.000E-01  1.000E+00
   1    3    5     3     1    1.0000E+01  2.8252E+00   7.1748E+00  0.000E+00  0.000E+00  0.000E+00  1.07555E+03  1.909E+00  9.636E+00  7.227E-01  1.955E+00
   1    3    6     3     2    7.1748E+00  1.8983E+00   5.2765E+00  0.000E+00  0.000E+00  0.000E+00  1.07264E+03  1.727E+00  8.909E+00  6.682E-01  1.421E+00
   1    3    7     3     3    5.2765E+00  9.1127E-01   4.3652E+00  0.000E+00  0.000E+00  0.000E+00  1.06987E+03  1.555E+00  8.218E+00  5.547E-01  8.214E-01
   1    4    8     3     4    4.3652E+00  1.5694E+00   2.7959E+00  0.000E+00  0.000E+00  0.000E+00  1.06682E+03  1.364E+00  7.455E+00  6.709E-01  1.170E+00
   1    5    8     3     5    2.7959E+00  1.5790E+00   1.2169E+00  0.000E+00  0.000E+00  0.000E+00  1.06362E+03  1.164E+00  6.655E+00  4.991E-01  1.582E+00
   1    6    8     3     6    1.2169E+00  5.5980E-01   6.5708E-01  0.000E+00  0.000E+00  0.000E+00  1.06158E+03  1.036E+00  6.145E+00  1.844E-01  1.518E+00
   1    5   10     4     1    1.0000E+01  9.0525E-01   9.0947E+00  0.000E+00  0.000E+00  0.000E+00  1.07835E+03  6.210E-01  1.000E+01  2.500E-01  1.207E+00
   1    5    9     4     2    9.0947E+00  1.7835E+00   7.3113E+00  0.000E+00  0.000E+00  0.000E+00  1.07148E+03  5.670E-01  1.000E+01  5.000E-01  1.189E+00
   1    6    8     4     3    7.3113E+00  1.2257E+00   6.0855E+00  0.000E+00  0.000E+00  0.000E+00  1.06368E+03  5.021E-01  1.000E+01  3.500E-01  1.167E+00
   1    6    8     5     1    6.7426E+00  8.3334E-01   5.9093E+00  0.000E+00  0.000E+00  0.000E+00  1.05857E+03  5.722E-01  1.149E+01  4.597E-01  6.042E-01
   1    7    7     5     2    5.9093E+00  1.6624E+00   4.2469E+00  0.000E+00  0.000E+00  0.000E+00  1.05403E+03  5.298E-01  1.007E+01  5.037E-01  1.100E+00
   1    8    7     5     3    4.2469E+00  1.0196E+00   3.2273E+00  0.000E+00  0.000E+00  0.000E+00  1.04973E+03  4.759E-01  8.381E+00  2.933E-01  1.159E+00
   1    8    6     5     4    3.2273E+00  6.0516E-01   2.6221E+00  0.000E+00  0.000E+00  0.000E+00  1.04669E+03  4.368E-01  7.235E+00  1.809E-01  1.115E+00
   1    9    6     6     1    2.6221E+00  1.9434E+00   6.7866E-01  0.000E+00  0.000E+00  0.000E+00  1.04297E+03  2.391E-01  1.200E+01  6.000E-01  1.080E+00
   1   10    7     6     2    6.7866E-01  6.7866E-01   0.0000E+00  0.000E+00  0.000E+00  0.000E+00  1.03821E+03  3.156E-02  1.200E+01  6.000E-01  1.011E+00
   1   11    7     6     3    0.0000E+00  0.0000E+00   0.0000E+00  0.000E+00  0.000E+00  0.000E+00  1.03364E+03  0.000E+00  1.200E+01  6.000E-01  9.936E-01
   1   12    7     6     4    0.0000E+00  0.0000E+00   0.0000E+00  0.000E+00  0.000E+00  0.000E+00  1.02909E+03  0.000E+00  1.200E+01  6.000E-01  2.612E-01
   1   13    7     6     5    0.0000E+00 -7.9965E-01   7.9965E-01  0.000E+00  0.000E+00  0.000E+00  1.02591E+03  0.000E+00  1.200E+01  2.400E-01 -1.111E+00
   1   14    9     7     1    1.5000E+02  2.0873E+00   1.4791E+02  0.000E+00  0.000E+00  0.000E+00  1.03987E+03  2.286E+00  5.529E+01  5.592E+00  1.244E-01
   1   13    8     7     2    1.4791E+02  3.0541E+00   1.4486E+02  0.000E+00  0.000E+00  0.000E+00  1.03477E+03  2.272E+00  5.522E+01  6.144E+00  1.657E-01
   1   13    7     7     3    1.4486E+02  2.4303E+00   1.4243E+02  0.000E+00  0.000E+00  0.000E+00  1.02968E+03  2.257E+00  5.516E+01  5.578E+00  1.452E-01
   1   13    6     8     1    1.4323E+02  7.0719E-01   1.4252E+02  0.000E+00  0.000E+00  0.000E+00  1.02464E+03  2.766E+00  4.011E+01  4.087E+00  5.768E-02
   1   13    5     8     2    1.4252E+02 -2.0696E+00   1.4459E+02  0.000E+00  0.000E+00  0.000E+00  1.01840E+03  2.771E+00  4.018E+01  4.094E+00 -1.685E-01
   1   13    4     8     3    1.4459E+02 -3.7755E+00   1.4837E+02  0.000E+00  0.000E+00  0.000E+00  1.01217E+03  2.792E+00  4.048E+01  4.125E+00 -3.051E-01
   1   13    3     8     4    1.4837E+02 -4.0026E+00   1.5237E+02  0.000E+00  0.000E+00  0.000E+00  1.00594E+03  2.819E+00  4.088E+01  4.166E+00 -3.203E-01
   1   13    2     8     5    1.5237E+02 -2.0418E+00   1.5441E+02  0.000E+00  0.000E+00  0.000E+00  9.99716E+02  2.841E+00  4.119E+01  4.197E+00 -1.622E-01
   1   13    1     8     6    1.5441E+02 -4.9313E-01   1.5490E+02  0.000E+00  0.000E+00  0.000E+00  9.94724E+02  2.849E+00  4.132E+01  2.526E+00 -6.507E-02



1
              HEAD IN LAYER   1 AT END OF TIME STEP  15 IN STRESS PERIOD   11
  ---------------------------------------------------------------------------

           1       2       3       4       5       6       7       8       9      10
 ...................................................................................
   1  1092.39 1088.63 6999.00 6999.00 6999.00 6999.00 6999.00 6999.00 6999.00 6999.00
   2  1089.03 1085.70 1079.28 6999.00 6999.00 1073.77 1072.66 1070.93 6999.00 6999.00
   3  6999.00 1077.38 1074.51 1070.39 1070.97 1069.80 1068.23 1067.93 6999.00 6999.00
   4  1069.41 1068.68 1067.04 1063.64 1062.48 1061.18 1061.76 1064.48 1063.90 6999.00
   5  1065.17 1061.72 1059.30 1057.45 1057.16 1057.72 1057.54 1059.56 1062.99 1065.38
   6  1060.41 1055.85 1053.02 1051.01 1051.30 1053.23 1054.47 1056.76 1059.52 1063.68
   7  1056.55 1050.20 1047.32 1045.52 1046.12 1048.37 1050.73 1053.04 1054.32 6999.00
   8  6999.00 1042.80 1041.32 1040.04 1040.88 1043.34 1045.12 1047.46 1049.27 6999.00
   9  6999.00 1035.82 1035.28 1034.60 1035.75 1038.39 1039.28 1041.02 1043.85 6999.00
  10  6999.00 1028.70 1029.12 1029.48 1030.96 1033.27 1034.57 1036.44 1040.12 1044.65
  11  6999.00 1019.80 1021.58 1025.09 1027.10 1029.19 1030.66 1032.93 1036.37 6999.00
  12  1001.20 1008.87 1014.15 1019.06 1022.70 1025.92 1028.31 1031.03 1034.89 6999.00
  13   994.92 1000.20 1006.91 1013.08 1018.90 1024.47 1029.24 1034.27 1036.39 6999.00
  14  6999.00 1005.81 1011.40 1016.13 1021.16 1025.87 1030.14 1035.23 1039.49 6999.00
  15  6999.00 6999.00 1018.84 1021.84 1026.00 1029.35 6999.00 6999.00 6999.00 6999.00

 HEAD WILL BE SAVED ON UNIT   58 AT END OF TIME STEP  15, STRESS PERIOD   11
1
  VOLUMETRIC BUDGET FOR ENTIRE MODEL AT END OF TIME STEP 15 IN STRESS PERIOD  11
  ------------------------------------------------------------------------------

     CUMULATIVE VOLUMES      L**3       RATES FOR THIS TIME STEP      L**3/T
     ------------------                 ------------------------

           IN:                                      IN:
           ---                                      ---
             STORAGE =   125244088.0000               STORAGE =          16.3270
       CONSTANT HEAD =           0.0000         CONSTANT HEAD =           0.0000
               WELLS =           0.0000                 WELLS =           0.0000
     HEAD DEP BOUNDS =     6039748.0000       HEAD DEP BOUNDS =           0.2093
        UZF RECHARGE =   361797440.0000          UZF RECHARGE =           9.3107
               GW ET =           0.0000                 GW ET =           0.0000
     SURFACE LEAKAGE =           0.0000       SURFACE LEAKAGE =           0.0000
      STREAM LEAKAGE =  1247759360.0000        STREAM LEAKAGE =          43.2790

            TOTAL IN =  1740840704.0000              TOTAL IN =          69.1259

          OUT:                                     OUT:
          ----                                     ----
             STORAGE =   447888960.0000               STORAGE =           6.8201
       CONSTANT HEAD =           0.0000         CONSTANT HEAD =           0.0000
               WELLS =   394199936.0000                 WELLS =          30.0000
     HEAD DEP BOUNDS =     7616818.0000       HEAD DEP BOUNDS =           0.2629
        UZF RECHARGE =           0.0000          UZF RECHARGE =           0.0000
               GW ET =   502842432.0000                 GW ET =          18.9108
     SURFACE LEAKAGE =           0.0000       SURFACE LEAKAGE =           0.0000
      STREAM LEAKAGE =   388027936.0000        STREAM LEAKAGE =          13.1823

           TOTAL OUT =  1740576000.0000             TOTAL OUT =          69.1761

            IN - OUT =      264704.0000              IN - OUT =      -5.0163E-02

 PERCENT DISCREPANCY =           0.02     PERCENT DISCREPANCY =          -0.07






          TIME SUMMARY AT END OF TIME STEP  15 IN STRESS PERIOD   11
                    SECONDS     MINUTES      HOURS       DAYS        YEARS
                    -----------------------------------------------------------
   TIME STEP LENGTH 3.14103E+05  5235.0      87.251      3.6354     9.95332E-03
 STRESS PERIOD TIME 2.62800E+06  43800.      730.00      30.417     8.32763E-02
         TOTAL TIME 2.89080E+07 4.81800E+05  8030.0      334.58     0.91604    
1
1
                            STRESS PERIOD NO.   12, LENGTH =   2628000.    
                            -----------------------------------------------

                              NUMBER OF TIME STEPS =    15

                               MULTIPLIER FOR DELT =     1.100

                            INITIAL TIME STEP SIZE =   82713.07    

      0 WELLS

 REUSING NON-PARAMETER GHB CELLS FROM LAST STRESS PERIOD

      2 GHB CELLS

 REUSING STREAM SEGMENT DATA FROM LAST STRESS PERIOD



            AREAL INFILTRATION RATE
 READING ON UNIT   19 WITH FORMAT: (10F4.0)            

            1           2           3           4           5           6           7           8           9          10
 ........................................................................................................................
   1   1.0000E-09  2.0000E-09   0.000       0.000       0.000       0.000       0.000       0.000       0.000       0.000    
   2   2.0000E-09  1.0000E-09  2.0000E-09   0.000       0.000      8.0000E-09  8.0000E-09  5.0000E-09   0.000       0.000    
   3    0.000      5.0000E-09  1.0000E-09  1.0000E-09  8.0000E-09  8.0000E-09  5.0000E-09  5.0000E-09   0.000       0.000    
   4   8.0000E-09  5.0000E-09  1.0000E-09  1.0000E-09  1.0000E-09  1.0000E-09  1.0000E-09  1.0000E-09  2.0000E-09   0.000    
   5   8.0000E-09  5.0000E-09  1.0000E-09  1.0000E-09  1.0000E-09  1.0000E-09  1.0000E-09  1.0000E-09  1.0000E-09  1.0000E-09
   6   8.0000E-09  5.0000E-09  5.0000E-09  2.0000E-09  2.0000E-09  1.0000E-09  1.0000E-09  1.0000E-09  1.0000E-09  5.0000E-09
   7   8.0000E-09  5.0000E-09  5.0000E-09  2.0000E-09  2.0000E-09  1.0000E-09  1.0000E-09  2.0000E-09  2.0000E-09   0.000    
   8    0.000      5.0000E-09  5.0000E-09  2.0000E-09  2.0000E-09  1.0000E-09  1.0000E-09  2.0000E-09  5.0000E-09   0.000    
   9    0.000      5.0000E-09  5.0000E-09  2.0000E-09  2.0000E-09  1.0000E-09  1.0000E-09  2.0000E-09  5.0000E-09   0.000    
  10    0.000      5.0000E-09  5.0000E-09  2.0000E-09  2.0000E-09  1.0000E-09  1.0000E-09  2.0000E-09  5.0000E-09  8.0000E-09
  11    0.000      1.0000E-09  1.0000E-09  1.0000E-09  1.0000E-09  1.0000E-09  1.0000E-09  2.0000E-09  5.0000E-09   0.000    
  12   1.0000E-09  1.0000E-09  1.0000E-09  1.0000E-09  1.0000E-09  1.0000E-09  1.0000E-09  1.0000E-09  2.0000E-09   0.000    
  13   1.0000E-09  1.0000E-09  2.0000E-09  2.0000E-09  2.0000E-09  2.0000E-09  2.0000E-09  1.0000E-09  1.0000E-09   0.000    
  14    0.000      2.0000E-09  5.0000E-09  5.0000E-09  5.0000E-09  5.0000E-09  5.0000E-09  2.0000E-09  1.0000E-09   0.000    
  15    0.000       0.000      8.0000E-09  8.0000E-09  8.0000E-09  8.0000E-09   0.000       0.000       0.000       0.000    

USING ET RATE FROM PREVIOUS STRESS PERIOD. CURRENT PERIOD IS:      12

 USING ET EXTINCTION DEPTH FROM PREVIOUS STRESS PERIOD. CURRENT PERIOD IS:      12

 USING EXTINCTION WATER CONTENT FROM PREVIOUS STRESS PERIOD. CURRENT PERIOD IS:      12
 
 SOLVING FOR HEAD 

     7 ITERATIONS FOR TIME STEP   1 IN STRESS PERIOD   12

 MAXIMUM HEAD CHANGE FOR EACH ITERATION:

    HEAD CHANGE   HEAD CHANGE   HEAD CHANGE   HEAD CHANGE   HEAD CHANGE
  LAYER,ROW,COL LAYER,ROW,COL LAYER,ROW,COL LAYER,ROW,COL LAYER,ROW,COL
 ----------------------------------------------------------------------
     0.2537E-01    0.6301E-02    0.3067E-02    0.1491E-02    0.7110E-03
  (  1, 10,  5) (  1, 10, 10) (  1, 10, 10) (  1, 10, 10) (  1, 10, 10)
     0.3487E-03    0.1730E-03
  (  1, 10, 10) (  1, 10, 10)


 NO OUTPUT CONTROL FOR STRESS PERIOD   12   TIME STEP   1
 
 SOLVING FOR HEAD 
     7 ITERATIONS FOR TIME STEP   2 IN STRESS PERIOD   12

 MAXIMUM HEAD CHANGE FOR EACH ITERATION:

    HEAD CHANGE   HEAD CHANGE   HEAD CHANGE   HEAD CHANGE   HEAD CHANGE
  LAYER,ROW,COL LAYER,ROW,COL LAYER,ROW,COL LAYER,ROW,COL LAYER,ROW,COL
 ----------------------------------------------------------------------
     0.2681E-01    0.6849E-02    0.3300E-02    0.1625E-02    0.7791E-03
  (  1, 10,  5) (  1, 10, 10) (  1, 10, 10) (  1, 10, 10) (  1, 10, 10)
     0.3829E-03    0.1901E-03
  (  1, 10, 10) (  1, 10, 10)


 NO OUTPUT CONTROL FOR STRESS PERIOD   12   TIME STEP   2
 
 SOLVING FOR HEAD 
     8 ITERATIONS FOR TIME STEP   3 IN STRESS PERIOD   12

 MAXIMUM HEAD CHANGE FOR EACH ITERATION:

    HEAD CHANGE   HEAD CHANGE   HEAD CHANGE   HEAD CHANGE   HEAD CHANGE
  LAYER,ROW,COL LAYER,ROW,COL LAYER,ROW,COL LAYER,ROW,COL LAYER,ROW,COL
 ----------------------------------------------------------------------
     0.2827E-01    0.7229E-02    0.3506E-02    0.1700E-02    0.7770E-03
  (  1, 10,  5) (  1, 10, 10) (  1, 10, 10) (  1, 10, 10) (  1, 10, 10)
     0.4051E-03    0.2059E-03    0.1036E-03
  (  1, 10, 10) (  1, 10, 10) (  1, 10, 10)


 NO OUTPUT CONTROL FOR STRESS PERIOD   12   TIME STEP   3
 
 SOLVING FOR HEAD 
     8 ITERATIONS FOR TIME STEP   4 IN STRESS PERIOD   12

 MAXIMUM HEAD CHANGE FOR EACH ITERATION:

    HEAD CHANGE   HEAD CHANGE   HEAD CHANGE   HEAD CHANGE   HEAD CHANGE
  LAYER,ROW,COL LAYER,ROW,COL LAYER,ROW,COL LAYER,ROW,COL LAYER,ROW,COL
 ----------------------------------------------------------------------
     0.2966E-01    0.7860E-02    0.3838E-02    0.1866E-02    0.9225E-03
  (  1, 10,  5) (  1, 10, 10) (  1, 10, 10) (  1, 10, 10) (  1, 10, 10)
     0.3905E-03    0.2154E-03    0.1117E-03
  (  1, 10, 10) (  1, 10, 10) (  1, 10, 10)


 NO OUTPUT CONTROL FOR STRESS PERIOD   12   TIME STEP   4
 
 SOLVING FOR HEAD 
     8 ITERATIONS FOR TIME STEP   5 IN STRESS PERIOD   12

 MAXIMUM HEAD CHANGE FOR EACH ITERATION:

    HEAD CHANGE   HEAD CHANGE   HEAD CHANGE   HEAD CHANGE   HEAD CHANGE
  LAYER,ROW,COL LAYER,ROW,COL LAYER,ROW,COL LAYER,ROW,COL LAYER,ROW,COL
 ----------------------------------------------------------------------
     0.3114E-01    0.8632E-02    0.4218E-02    0.1976E-02    0.9994E-03
  (  1, 10,  5) (  1, 10, 10) (  1, 10, 10) (  1, 10, 10) (  1, 10, 10)
     0.5019E-03    0.2514E-03    0.1258E-03
  (  1, 10, 10) (  1, 10, 10) (  1, 10, 10)


 OUTPUT CONTROL FOR STRESS PERIOD   12   TIME STEP   5
    PRINT BUDGET
    SAVE BUDGET

  HEAD DEP BOUNDS   PERIOD   12   STEP   5
 BOUNDARY      1   LAYER   1   ROW    13   COL     1   RATE   -0.262858    
 BOUNDARY      2   LAYER   1   ROW    14   COL     9   RATE    0.209309    
 UBDSV3 SAVING "           GW ET" ON UNIT  61 AT TIME STEP  5, STRESS PERIOD  12
 UBDSV3 SAVING "    UZF RECHARGE" ON UNIT  61 AT TIME STEP  5, STRESS PERIOD  12
 UBDSV3 SAVING " SURFACE LEAKAGE" ON UNIT  61 AT TIME STEP  5, STRESS PERIOD  12


UNSATURATED ZONE PACKAGE VOLUMETRIC BUDGET FOR  TIME STEP    5 STRESS PERIOD   12
  ------------------------------------------------------------------------------



     CUMULATIVE VOLUMES      L**3       RATES FOR THIS TIME STEP      L**3/T
     ------------------                 ------------------------

           IN:                                      IN:
           ---                                      ---
        INFILTRATION =  1518795910.5747          INFILTRATION =           8.4750

          OUT:                                     OUT:
          ----                                     ----
              UZF ET =  2061844063.8490                UZF ET =          35.8963
        UZF RECHARGE =   366360767.2774          UZF RECHARGE =           8.8321

            IN - OUT =  -909408920.5517              IN - OUT =         -36.2534

          STORAGE:                                 STORAGE:
          --------                                 --------
      STORAGE CHANGE =  -909200212.2807        STORAGE CHANGE =         -36.2534

 PERCENT DISCREPANCY IS DIFFERENCE BETWEEN IN-OUT MINUS CHANGE IN STORAGE
 DIVIDED BY THE AVERAGE OF IN AND OUT TIMES 100

 PERCENT DISCREPANCY =           0.00     PERCENT DISCREPANCY =           0.00









 STREAM LISTING     PERIOD     12   STEP        5

 LAYER ROW COL. STREAM  RCH.  FLOW INTO     FLOW TO   FLOW OUT OF   OVRLND.     DIRECT     STREAM       STREAM     STREAM     STREAM   STREAMBED  STREAMBED
                SEG.NO.  NO.  STRM. RCH.    AQUIFER    STRM. RCH.    RUNOFF     PRECIP       ET          HEAD       DEPTH      WIDTH   CONDCTNC.   GRADIENT

   1    1    1     1     1    2.5000E+01  1.0709E+00   2.3929E+01  0.000E+00  0.000E+00  0.000E+00  1.09422E+03  1.172E+00  1.296E+01  5.830E-01  6.123E-01
   1    2    2     1     2    2.3929E+01  3.0721E+00   2.0857E+01  0.000E+00  0.000E+00  0.000E+00  1.08920E+03  1.140E+00  1.253E+01  8.769E-01  1.168E+00
   1    3    3     1     3    2.0857E+01  2.9013E+00   1.7956E+01  0.000E+00  0.000E+00  0.000E+00  1.08351E+03  1.090E+00  1.182E+01  7.093E-01  1.363E+00
   1    3    4     1     4    1.7956E+01  2.4642E+00   1.5491E+01  0.000E+00  0.000E+00  0.000E+00  1.07845E+03  1.044E+00  1.098E+01  6.093E-01  1.348E+00
   1    4    5     2     1    5.4915E+00  2.6612E+00   2.8303E+00  0.000E+00  0.000E+00  0.000E+00  1.07235E+03  4.118E-01  1.200E+01  7.800E-01  1.137E+00
   1    5    6     2     2    2.8303E+00  1.9521E+00   8.7816E-01  0.000E+00  0.000E+00  0.000E+00  1.06676E+03  2.535E-01  1.200E+01  6.000E-01  1.085E+00
   1    6    6     2     3    8.7816E-01  8.7816E-01   0.0000E+00  0.000E+00  0.000E+00  0.000E+00  1.06183E+03  3.643E-02  1.200E+01  6.000E-01  1.012E+00
   1    7    6     2     4    0.0000E+00  0.0000E+00   0.0000E+00  0.000E+00  0.000E+00  0.000E+00  1.05708E+03  0.000E+00  1.200E+01  6.000E-01  1.000E+00
   1    8    6     2     5    0.0000E+00  0.0000E+00   0.0000E+00  0.000E+00  0.000E+00  0.000E+00  1.05236E+03  0.000E+00  1.200E+01  6.000E-01  1.000E+00
   1    3    5     3     1    1.0000E+01  2.8252E+00   7.1748E+00  0.000E+00  0.000E+00  0.000E+00  1.07555E+03  1.909E+00  9.636E+00  7.227E-01  1.955E+00
   1    3    6     3     2    7.1748E+00  1.9102E+00   5.2646E+00  0.000E+00  0.000E+00  0.000E+00  1.07264E+03  1.727E+00  8.909E+00  6.682E-01  1.429E+00
   1    3    7     3     3    5.2646E+00  9.1680E-01   4.3478E+00  0.000E+00  0.000E+00  0.000E+00  1.06987E+03  1.555E+00  8.218E+00  5.547E-01  8.264E-01
   1    4    8     3     4    4.3478E+00  1.5716E+00   2.7762E+00  0.000E+00  0.000E+00  0.000E+00  1.06682E+03  1.364E+00  7.455E+00  6.709E-01  1.171E+00
   1    5    8     3     5    2.7762E+00  1.5790E+00   1.1972E+00  0.000E+00  0.000E+00  0.000E+00  1.06362E+03  1.164E+00  6.655E+00  4.991E-01  1.582E+00
   1    6    8     3     6    1.1972E+00  5.5980E-01   6.3739E-01  0.000E+00  0.000E+00  0.000E+00  1.06158E+03  1.036E+00  6.145E+00  1.844E-01  1.518E+00
   1    5   10     4     1    1.0000E+01  9.0525E-01   9.0947E+00  0.000E+00  0.000E+00  0.000E+00  1.07835E+03  6.210E-01  1.000E+01  2.500E-01  1.207E+00
   1    5    9     4     2    9.0947E+00  1.7835E+00   7.3113E+00  0.000E+00  0.000E+00  0.000E+00  1.07148E+03  5.670E-01  1.000E+01  5.000E-01  1.189E+00
   1    6    8     4     3    7.3113E+00  1.2257E+00   6.0855E+00  0.000E+00  0.000E+00  0.000E+00  1.06368E+03  5.021E-01  1.000E+01  3.500E-01  1.167E+00
   1    6    8     5     1    6.7229E+00  8.2840E-01   5.8945E+00  0.000E+00  0.000E+00  0.000E+00  1.05857E+03  5.716E-01  1.147E+01  4.590E-01  6.016E-01
   1    7    7     5     2    5.8945E+00  1.6551E+00   4.2394E+00  0.000E+00  0.000E+00  0.000E+00  1.05403E+03  5.294E-01  1.006E+01  5.030E-01  1.097E+00
   1    8    7     5     3    4.2394E+00  1.0184E+00   3.2210E+00  0.000E+00  0.000E+00  0.000E+00  1.04973E+03  4.756E-01  8.372E+00  2.930E-01  1.159E+00
   1    8    6     5     4    3.2210E+00  6.0644E-01   2.6146E+00  0.000E+00  0.000E+00  0.000E+00  1.04669E+03  4.364E-01  7.225E+00  1.806E-01  1.119E+00
   1    9    6     6     1    2.6146E+00  1.9431E+00   6.7151E-01  0.000E+00  0.000E+00  0.000E+00  1.04297E+03  2.384E-01  1.200E+01  6.000E-01  1.079E+00
   1   10    7     6     2    6.7151E-01  6.7151E-01   0.0000E+00  0.000E+00  0.000E+00  0.000E+00  1.03821E+03  3.136E-02  1.200E+01  6.000E-01  1.010E+00
   1   11    7     6     3    0.0000E+00  0.0000E+00   0.0000E+00  0.000E+00  0.000E+00  0.000E+00  1.03364E+03  0.000E+00  1.200E+01  6.000E-01  9.910E-01
   1   12    7     6     4    0.0000E+00  0.0000E+00   0.0000E+00  0.000E+00  0.000E+00  0.000E+00  1.02909E+03  0.000E+00  1.200E+01  6.000E-01  2.606E-01
   1   13    7     6     5    0.0000E+00 -7.9947E-01   7.9947E-01  0.000E+00  0.000E+00  0.000E+00  1.02591E+03  0.000E+00  1.200E+01  2.400E-01 -1.110E+00
   1   14    9     7     1    1.5000E+02  2.0942E+00   1.4791E+02  0.000E+00  0.000E+00  0.000E+00  1.03987E+03  2.286E+00  5.529E+01  5.592E+00  1.248E-01
   1   13    8     7     2    1.4791E+02  3.0636E+00   1.4484E+02  0.000E+00  0.000E+00  0.000E+00  1.03477E+03  2.272E+00  5.522E+01  6.144E+00  1.662E-01
   1   13    7     7     3    1.4484E+02  2.4338E+00   1.4241E+02  0.000E+00  0.000E+00  0.000E+00  1.02968E+03  2.257E+00  5.516E+01  5.578E+00  1.454E-01
   1   13    6     8     1    1.4321E+02  7.0780E-01   1.4250E+02  0.000E+00  0.000E+00  0.000E+00  1.02464E+03  2.766E+00  4.010E+01  4.087E+00  5.773E-02
   1   13    5     8     2    1.4250E+02 -2.0653E+00   1.4457E+02  0.000E+00  0.000E+00  0.000E+00  1.01840E+03  2.771E+00  4.017E+01  4.094E+00 -1.682E-01
   1   13    4     8     3    1.4457E+02 -3.7697E+00   1.4833E+02  0.000E+00  0.000E+00  0.000E+00  1.01217E+03  2.792E+00  4.048E+01  4.125E+00 -3.046E-01
   1   13    3     8     4    1.4833E+02 -3.9974E+00   1.5233E+02  0.000E+00  0.000E+00  0.000E+00  1.00594E+03  2.819E+00  4.088E+01  4.166E+00 -3.199E-01
   1   13    2     8     5    1.5233E+02 -2.0346E+00   1.5437E+02  0.000E+00  0.000E+00  0.000E+00  9.99715E+02  2.840E+00  4.118E+01  4.197E+00 -1.616E-01
   1   13    1     8     6    1.5437E+02 -4.8823E-01   1.5486E+02  0.000E+00  0.000E+00  0.000E+00  9.94724E+02  2.849E+00  4.131E+01  2.526E+00 -6.443E-02



1
  VOLUMETRIC BUDGET FOR ENTIRE MODEL AT END OF TIME STEP  5 IN STRESS PERIOD  12
  ------------------------------------------------------------------------------

     CUMULATIVE VOLUMES      L**3       RATES FOR THIS TIME STEP      L**3/T
     ------------------                 ------------------------

           IN:                                      IN:
           ---                                      ---
             STORAGE =   126174736.0000               STORAGE =           1.2171
       CONSTANT HEAD =           0.0000         CONSTANT HEAD =           0.0000
               WELLS =           0.0000                 WELLS =           0.0000
     HEAD DEP BOUNDS =     6145432.5000       HEAD DEP BOUNDS =           0.2093
        UZF RECHARGE =   366360992.0000          UZF RECHARGE =           8.8321
               GW ET =           0.0000                 GW ET =           0.0000
     SURFACE LEAKAGE =           0.0000       SURFACE LEAKAGE =           0.0000
      STREAM LEAKAGE =  1269619968.0000        STREAM LEAKAGE =          43.2994

            TOTAL IN =  1768301056.0000              TOTAL IN =          53.5579

          OUT:                                     OUT:
          ----                                     ----
             STORAGE =   458944640.0000               STORAGE =          21.0030
       CONSTANT HEAD =           0.0000         CONSTANT HEAD =           0.0000
               WELLS =   394199936.0000                 WELLS =           0.0000
     HEAD DEP BOUNDS =     7749572.0000       HEAD DEP BOUNDS =           0.2629
        UZF RECHARGE =           0.0000          UZF RECHARGE =           0.0000
               GW ET =   512467008.0000                 GW ET =          19.1310
     SURFACE LEAKAGE =           0.0000       SURFACE LEAKAGE =           0.0000
      STREAM LEAKAGE =   394676480.0000        STREAM LEAKAGE =          13.1547

           TOTAL OUT =  1768037632.0000             TOTAL OUT =          53.5515

            IN - OUT =      263424.0000              IN - OUT =       6.4163E-03

 PERCENT DISCREPANCY =           0.01     PERCENT DISCREPANCY =           0.01






          TIME SUMMARY AT END OF TIME STEP   5 IN STRESS PERIOD   12
                    SECONDS     MINUTES      HOURS       DAYS        YEARS
                    -----------------------------------------------------------
   TIME STEP LENGTH 1.21100E+05  2018.3      33.639      1.4016     3.83743E-03
 STRESS PERIOD TIME 5.04972E+05  8416.2      140.27      5.8446     1.60016E-02
         TOTAL TIME 2.94130E+07 4.90216E+05  8170.3      340.43     0.93204    
1
 
 SOLVING FOR HEAD 
     7 ITERATIONS FOR TIME STEP   6 IN STRESS PERIOD   12

 MAXIMUM HEAD CHANGE FOR EACH ITERATION:

    HEAD CHANGE   HEAD CHANGE   HEAD CHANGE   HEAD CHANGE   HEAD CHANGE
  LAYER,ROW,COL LAYER,ROW,COL LAYER,ROW,COL LAYER,ROW,COL LAYER,ROW,COL
 ----------------------------------------------------------------------
     0.3248E-01    0.9099E-02    0.4394E-02    0.2125E-02    0.1006E-02
  (  1, 10,  5) (  1, 10, 10) (  1, 10, 10) (  1, 10, 10) (  1, 10, 10)
     0.5334E-03    0.1897E-03
  (  1, 10, 10) (  1, 10, 10)


 NO OUTPUT CONTROL FOR STRESS PERIOD   12   TIME STEP   6
 
 SOLVING FOR HEAD 
     8 ITERATIONS FOR TIME STEP   7 IN STRESS PERIOD   12

 MAXIMUM HEAD CHANGE FOR EACH ITERATION:

    HEAD CHANGE   HEAD CHANGE   HEAD CHANGE   HEAD CHANGE   HEAD CHANGE
  LAYER,ROW,COL LAYER,ROW,COL LAYER,ROW,COL LAYER,ROW,COL LAYER,ROW,COL
 ----------------------------------------------------------------------
     0.3398E-01    0.1146E-01    0.5573E-02    0.2664E-02    0.1353E-02
  (  1,  6,  4) (  1, 15,  4) (  1, 15,  4) (  1, 15,  4) (  1, 15,  4)
     0.6353E-03    0.3093E-03    0.1531E-03
  (  1, 15,  4) (  1, 15,  4) (  1, 15,  4)


 NO OUTPUT CONTROL FOR STRESS PERIOD   12   TIME STEP   7
 
 SOLVING FOR HEAD 
     8 ITERATIONS FOR TIME STEP   8 IN STRESS PERIOD   12

 MAXIMUM HEAD CHANGE FOR EACH ITERATION:

    HEAD CHANGE   HEAD CHANGE   HEAD CHANGE   HEAD CHANGE   HEAD CHANGE
  LAYER,ROW,COL LAYER,ROW,COL LAYER,ROW,COL LAYER,ROW,COL LAYER,ROW,COL
 ----------------------------------------------------------------------
     0.3600E-01    0.1250E-01    0.6058E-02    0.2915E-02    0.1435E-02
  (  1,  6,  4) (  1, 15,  4) (  1, 15,  4) (  1, 15,  4) (  1, 15,  4)
     0.6879E-03    0.3379E-03    0.1678E-03
  (  1, 15,  4) (  1, 15,  4) (  1, 15,  4)


 NO OUTPUT CONTROL FOR STRESS PERIOD   12   TIME STEP   8
 
 SOLVING FOR HEAD 
     8 ITERATIONS FOR TIME STEP   9 IN STRESS PERIOD   12

 MAXIMUM HEAD CHANGE FOR EACH ITERATION:

    HEAD CHANGE   HEAD CHANGE   HEAD CHANGE   HEAD CHANGE   HEAD CHANGE
  LAYER,ROW,COL LAYER,ROW,COL LAYER,ROW,COL LAYER,ROW,COL LAYER,ROW,COL
 ----------------------------------------------------------------------
     0.3866E-01    0.1358E-01    0.6573E-02    0.3243E-02    0.1530E-02
  (  1,  7,  4) (  1, 15,  4) (  1, 15,  4) (  1, 15,  4) (  1, 15,  4)
     0.7468E-03    0.3696E-03    0.1842E-03
  (  1, 15,  4) (  1, 15,  4) (  1, 15,  4)


 NO OUTPUT CONTROL FOR STRESS PERIOD   12   TIME STEP   9
 
 SOLVING FOR HEAD 
     8 ITERATIONS FOR TIME STEP  10 IN STRESS PERIOD   12

 MAXIMUM HEAD CHANGE FOR EACH ITERATION:

    HEAD CHANGE   HEAD CHANGE   HEAD CHANGE   HEAD CHANGE   HEAD CHANGE
  LAYER,ROW,COL LAYER,ROW,COL LAYER,ROW,COL LAYER,ROW,COL LAYER,ROW,COL
 ----------------------------------------------------------------------
     0.4201E-01    0.1430E-01    0.6918E-02    0.3322E-02    0.1633E-02
  (  1,  7,  4) (  1, 15,  4) (  1, 15,  4) (  1, 15,  4) (  1, 15,  4)
     0.8111E-03    0.3440E-03    0.1899E-03
  (  1, 15,  4) (  1, 15,  4) (  1, 15,  4)


 OUTPUT CONTROL FOR STRESS PERIOD   12   TIME STEP  10
    PRINT BUDGET
    SAVE BUDGET

  HEAD DEP BOUNDS   PERIOD   12   STEP  10
 BOUNDARY      1   LAYER   1   ROW    13   COL     1   RATE   -0.262752    
 BOUNDARY      2   LAYER   1   ROW    14   COL     9   RATE    0.209422    
 UBDSV3 SAVING "           GW ET" ON UNIT  61 AT TIME STEP 10, STRESS PERIOD  12
 UBDSV3 SAVING "    UZF RECHARGE" ON UNIT  61 AT TIME STEP 10, STRESS PERIOD  12
 UBDSV3 SAVING " SURFACE LEAKAGE" ON UNIT  61 AT TIME STEP 10, STRESS PERIOD  12


UNSATURATED ZONE PACKAGE VOLUMETRIC BUDGET FOR  TIME STEP   10 STRESS PERIOD   12
  ------------------------------------------------------------------------------



     CUMULATIVE VOLUMES      L**3       RATES FOR THIS TIME STEP      L**3/T
     ------------------                 ------------------------

           IN:                                      IN:
           ---                                      ---
        INFILTRATION =  1525688304.5068          INFILTRATION =           8.4750

          OUT:                                     OUT:
          ----                                     ----
              UZF ET =  2090332333.2782                UZF ET =          34.1093
        UZF RECHARGE =   373957292.9206          UZF RECHARGE =           9.3035

            IN - OUT =  -938601321.6920              IN - OUT =         -34.9378

          STORAGE:                                 STORAGE:
          --------                                 --------
      STORAGE CHANGE =  -938392247.6524        STORAGE CHANGE =         -34.9360

 PERCENT DISCREPANCY IS DIFFERENCE BETWEEN IN-OUT MINUS CHANGE IN STORAGE
 DIVIDED BY THE AVERAGE OF IN AND OUT TIMES 100

 PERCENT DISCREPANCY =           0.00     PERCENT DISCREPANCY =           0.00









 STREAM LISTING     PERIOD     12   STEP       10

 LAYER ROW COL. STREAM  RCH.  FLOW INTO     FLOW TO   FLOW OUT OF   OVRLND.     DIRECT     STREAM       STREAM     STREAM     STREAM   STREAMBED  STREAMBED
                SEG.NO.  NO.  STRM. RCH.    AQUIFER    STRM. RCH.    RUNOFF     PRECIP       ET          HEAD       DEPTH      WIDTH   CONDCTNC.   GRADIENT

   1    1    1     1     1    2.5000E+01  1.0732E+00   2.3927E+01  0.000E+00  0.000E+00  0.000E+00  1.09422E+03  1.172E+00  1.296E+01  5.830E-01  6.136E-01
   1    2    2     1     2    2.3927E+01  3.0748E+00   2.0852E+01  0.000E+00  0.000E+00  0.000E+00  1.08920E+03  1.140E+00  1.253E+01  8.768E-01  1.169E+00
   1    3    3     1     3    2.0852E+01  2.9009E+00   1.7951E+01  0.000E+00  0.000E+00  0.000E+00  1.08351E+03  1.090E+00  1.182E+01  7.092E-01  1.363E+00
   1    3    4     1     4    1.7951E+01  2.4639E+00   1.5487E+01  0.000E+00  0.000E+00  0.000E+00  1.07845E+03  1.044E+00  1.098E+01  6.092E-01  1.348E+00
   1    4    5     2     1    5.4873E+00  2.6610E+00   2.8263E+00  0.000E+00  0.000E+00  0.000E+00  1.07235E+03  4.115E-01  1.200E+01  7.800E-01  1.137E+00
   1    5    6     2     2    2.8263E+00  1.9519E+00   8.7437E-01  0.000E+00  0.000E+00  0.000E+00  1.06676E+03  2.532E-01  1.200E+01  6.000E-01  1.084E+00
   1    6    6     2     3    8.7437E-01  8.7437E-01   0.0000E+00  0.000E+00  0.000E+00  0.000E+00  1.06183E+03  3.634E-02  1.200E+01  6.000E-01  1.012E+00
   1    7    6     2     4    0.0000E+00  0.0000E+00   0.0000E+00  0.000E+00  0.000E+00  0.000E+00  1.05708E+03  0.000E+00  1.200E+01  6.000E-01  1.000E+00
   1    8    6     2     5    0.0000E+00  0.0000E+00   0.0000E+00  0.000E+00  0.000E+00  0.000E+00  1.05236E+03  0.000E+00  1.200E+01  6.000E-01  1.000E+00
   1    3    5     3     1    1.0000E+01  2.8252E+00   7.1748E+00  0.000E+00  0.000E+00  0.000E+00  1.07555E+03  1.909E+00  9.636E+00  7.227E-01  1.955E+00
   1    3    6     3     2    7.1748E+00  1.9261E+00   5.2487E+00  0.000E+00  0.000E+00  0.000E+00  1.07264E+03  1.727E+00  8.909E+00  6.682E-01  1.441E+00
   1    3    7     3     3    5.2487E+00  9.2500E-01   4.3237E+00  0.000E+00  0.000E+00  0.000E+00  1.06987E+03  1.555E+00  8.218E+00  5.547E-01  8.337E-01
   1    4    8     3     4    4.3237E+00  1.5750E+00   2.7487E+00  0.000E+00  0.000E+00  0.000E+00  1.06682E+03  1.364E+00  7.455E+00  6.709E-01  1.174E+00
   1    5    8     3     5    2.7487E+00  1.5790E+00   1.1697E+00  0.000E+00  0.000E+00  0.000E+00  1.06362E+03  1.164E+00  6.655E+00  4.991E-01  1.582E+00
   1    6    8     3     6    1.1697E+00  5.5980E-01   6.0991E-01  0.000E+00  0.000E+00  0.000E+00  1.06158E+03  1.036E+00  6.145E+00  1.844E-01  1.518E+00
   1    5   10     4     1    1.0000E+01  9.0525E-01   9.0947E+00  0.000E+00  0.000E+00  0.000E+00  1.07835E+03  6.210E-01  1.000E+01  2.500E-01  1.207E+00
   1    5    9     4     2    9.0947E+00  1.7835E+00   7.3113E+00  0.000E+00  0.000E+00  0.000E+00  1.07148E+03  5.670E-01  1.000E+01  5.000E-01  1.189E+00
   1    6    8     4     3    7.3113E+00  1.2257E+00   6.0855E+00  0.000E+00  0.000E+00  0.000E+00  1.06368E+03  5.021E-01  1.000E+01  3.500E-01  1.167E+00
   1    6    8     5     1    6.6955E+00  8.2166E-01   5.8738E+00  0.000E+00  0.000E+00  0.000E+00  1.05857E+03  5.708E-01  1.145E+01  4.579E-01  5.981E-01
   1    7    7     5     2    5.8738E+00  1.6448E+00   4.2290E+00  0.000E+00  0.000E+00  0.000E+00  1.05403E+03  5.288E-01  1.004E+01  5.021E-01  1.092E+00
   1    8    7     5     3    4.2290E+00  1.0167E+00   3.2123E+00  0.000E+00  0.000E+00  0.000E+00  1.04973E+03  4.752E-01  8.359E+00  2.926E-01  1.158E+00
   1    8    6     5     4    3.2123E+00  6.0341E-01   2.6089E+00  0.000E+00  0.000E+00  0.000E+00  1.04669E+03  4.360E-01  7.214E+00  1.803E-01  1.115E+00
   1    9    6     6     1    2.6089E+00  1.9428E+00   6.6610E-01  0.000E+00  0.000E+00  0.000E+00  1.04297E+03  2.379E-01  1.200E+01  6.000E-01  1.079E+00
   1   10    7     6     2    6.6610E-01  6.6610E-01   0.0000E+00  0.000E+00  0.000E+00  0.000E+00  1.03821E+03  3.121E-02  1.200E+01  6.000E-01  1.010E+00
   1   11    7     6     3    0.0000E+00  0.0000E+00   0.0000E+00  0.000E+00  0.000E+00  0.000E+00  1.03364E+03  0.000E+00  1.200E+01  6.000E-01  9.878E-01
   1   12    7     6     4    0.0000E+00  0.0000E+00   0.0000E+00  0.000E+00  0.000E+00  0.000E+00  1.02909E+03  0.000E+00  1.200E+01  6.000E-01  2.603E-01
   1   13    7     6     5    0.0000E+00 -7.9927E-01   7.9927E-01  0.000E+00  0.000E+00  0.000E+00  1.02591E+03  0.000E+00  1.200E+01  2.400E-01 -1.110E+00
   1   14    9     7     1    1.5000E+02  2.1107E+00   1.4789E+02  0.000E+00  0.000E+00  0.000E+00  1.03987E+03  2.286E+00  5.529E+01  5.592E+00  1.258E-01
   1   13    8     7     2    1.4789E+02  3.0831E+00   1.4481E+02  0.000E+00  0.000E+00  0.000E+00  1.03477E+03  2.272E+00  5.522E+01  6.144E+00  1.673E-01
   1   13    7     7     3    1.4481E+02  2.4374E+00   1.4237E+02  0.000E+00  0.000E+00  0.000E+00  1.02968E+03  2.257E+00  5.516E+01  5.578E+00  1.457E-01
   1   13    6     8     1    1.4317E+02  7.0879E-01   1.4246E+02  0.000E+00  0.000E+00  0.000E+00  1.02464E+03  2.765E+00  4.010E+01  4.086E+00  5.782E-02
   1   13    5     8     2    1.4246E+02 -2.0578E+00   1.4452E+02  0.000E+00  0.000E+00  0.000E+00  1.01840E+03  2.770E+00  4.017E+01  4.093E+00 -1.676E-01
   1   13    4     8     3    1.4452E+02 -3.7643E+00   1.4828E+02  0.000E+00  0.000E+00  0.000E+00  1.01217E+03  2.791E+00  4.047E+01  4.124E+00 -3.042E-01
   1   13    3     8     4    1.4828E+02 -3.9888E+00   1.5227E+02  0.000E+00  0.000E+00  0.000E+00  1.00594E+03  2.819E+00  4.087E+01  4.165E+00 -3.192E-01
   1   13    2     8     5    1.5227E+02 -2.0193E+00   1.5429E+02  0.000E+00  0.000E+00  0.000E+00  9.99715E+02  2.840E+00  4.118E+01  4.196E+00 -1.604E-01
   1   13    1     8     6    1.5429E+02 -4.8252E-01   1.5477E+02  0.000E+00  0.000E+00  0.000E+00  9.94723E+02  2.848E+00  4.130E+01  2.525E+00 -6.369E-02



1
  VOLUMETRIC BUDGET FOR ENTIRE MODEL AT END OF TIME STEP 10 IN STRESS PERIOD  12
  ------------------------------------------------------------------------------

     CUMULATIVE VOLUMES      L**3       RATES FOR THIS TIME STEP      L**3/T
     ------------------                 ------------------------

           IN:                                      IN:
           ---                                      ---
             STORAGE =   126945456.0000               STORAGE =           0.9451
       CONSTANT HEAD =           0.0000         CONSTANT HEAD =           0.0000
               WELLS =           0.0000                 WELLS =           0.0000
     HEAD DEP BOUNDS =     6315707.0000       HEAD DEP BOUNDS =           0.2094
        UZF RECHARGE =   373957504.0000          UZF RECHARGE =           9.3035
               GW ET =           0.0000                 GW ET =           0.0000
     SURFACE LEAKAGE =           0.0000       SURFACE LEAKAGE =           0.0000
      STREAM LEAKAGE =  1304852864.0000        STREAM LEAKAGE =          43.3400

            TOTAL IN =  1812071552.0000              TOTAL IN =          53.7980

          OUT:                                     OUT:
          ----                                     ----
             STORAGE =   476130464.0000               STORAGE =          21.0232
       CONSTANT HEAD =           0.0000         CONSTANT HEAD =           0.0000
               WELLS =   394199936.0000                 WELLS =           0.0000
     HEAD DEP BOUNDS =     7963289.5000       HEAD DEP BOUNDS =           0.2628
        UZF RECHARGE =           0.0000          UZF RECHARGE =           0.0000
               GW ET =   528159936.0000                 GW ET =          19.4123
     SURFACE LEAKAGE =           0.0000       SURFACE LEAKAGE =           0.0000
      STREAM LEAKAGE =   405353536.0000        STREAM LEAKAGE =          13.1119

           TOTAL OUT =  1811806976.0000             TOTAL OUT =          53.8102

            IN - OUT =      264576.0000              IN - OUT =      -1.2192E-02

 PERCENT DISCREPANCY =           0.01     PERCENT DISCREPANCY =          -0.02






          TIME SUMMARY AT END OF TIME STEP  10 IN STRESS PERIOD   12
                    SECONDS     MINUTES      HOURS       DAYS        YEARS
                    -----------------------------------------------------------
   TIME STEP LENGTH 1.95033E+05  3250.6      54.176      2.2573     6.18023E-03
 STRESS PERIOD TIME 1.31823E+06  21971.      366.18      15.257     4.17723E-02
         TOTAL TIME 3.02262E+07 5.03770E+05  8396.2      349.84     0.95781    
1
 
 SOLVING FOR HEAD 
     9 ITERATIONS FOR TIME STEP  11 IN STRESS PERIOD   12

 MAXIMUM HEAD CHANGE FOR EACH ITERATION:

    HEAD CHANGE   HEAD CHANGE   HEAD CHANGE   HEAD CHANGE   HEAD CHANGE
  LAYER,ROW,COL LAYER,ROW,COL LAYER,ROW,COL LAYER,ROW,COL LAYER,ROW,COL
 ----------------------------------------------------------------------
     0.4547E-01    0.1537E-01    0.7468E-02    0.3558E-02    0.1711E-02
  (  1,  7,  4) (  1, 15,  4) (  1, 15,  4) (  1, 15,  4) (  1, 15,  4)
     0.8747E-03    0.3748E-03    0.2081E-03    0.1081E-03
  (  1, 15,  4) (  1, 15,  4) (  1, 15,  4) (  1, 15,  4)


 NO OUTPUT CONTROL FOR STRESS PERIOD   12   TIME STEP  11
 
 SOLVING FOR HEAD 
     8 ITERATIONS FOR TIME STEP  12 IN STRESS PERIOD   12

 MAXIMUM HEAD CHANGE FOR EACH ITERATION:

    HEAD CHANGE   HEAD CHANGE   HEAD CHANGE   HEAD CHANGE   HEAD CHANGE
  LAYER,ROW,COL LAYER,ROW,COL LAYER,ROW,COL LAYER,ROW,COL LAYER,ROW,COL
 ----------------------------------------------------------------------
     0.4919E-01    0.1604E-01    0.7674E-02    0.3731E-02    0.1771E-02
  (  1,  7,  4) (  1, 15,  4) (  1, 15,  4) (  1, 15,  4) (  1, 15,  4)
     0.8665E-03    0.3930E-03    0.1518E-03
  (  1, 15,  4) (  1, 15,  4) (  1, 15,  4)


 NO OUTPUT CONTROL FOR STRESS PERIOD   12   TIME STEP  12
 
 SOLVING FOR HEAD 
     9 ITERATIONS FOR TIME STEP  13 IN STRESS PERIOD   12

 MAXIMUM HEAD CHANGE FOR EACH ITERATION:

    HEAD CHANGE   HEAD CHANGE   HEAD CHANGE   HEAD CHANGE   HEAD CHANGE
  LAYER,ROW,COL LAYER,ROW,COL LAYER,ROW,COL LAYER,ROW,COL LAYER,ROW,COL
 ----------------------------------------------------------------------
     0.5292E-01    0.1722E-01    0.8189E-02    0.3970E-02    0.1919E-02
  (  1,  7,  4) (  1, 15,  4) (  1, 15,  4) (  1, 15,  4) (  1, 15,  4)
     0.8664E-03    0.4146E-03    0.2437E-03    0.1290E-03
  (  1, 15,  4) (  1, 15,  4) (  1, 15,  4) (  1, 15,  4)


 NO OUTPUT CONTROL FOR STRESS PERIOD   12   TIME STEP  13
 
 SOLVING FOR HEAD 
     8 ITERATIONS FOR TIME STEP  14 IN STRESS PERIOD   12

 MAXIMUM HEAD CHANGE FOR EACH ITERATION:

    HEAD CHANGE   HEAD CHANGE   HEAD CHANGE   HEAD CHANGE   HEAD CHANGE
  LAYER,ROW,COL LAYER,ROW,COL LAYER,ROW,COL LAYER,ROW,COL LAYER,ROW,COL
 ----------------------------------------------------------------------
     0.5696E-01    0.1784E-01    0.8521E-02    0.4092E-02    0.1968E-02
  (  1,  8,  4) (  1, 15,  4) (  1, 15,  4) (  1, 15,  4) (  1, 15,  4)
     0.9242E-03    0.4500E-03    0.1785E-03
  (  1, 15,  4) (  1, 15,  4) (  1, 15,  4)


 NO OUTPUT CONTROL FOR STRESS PERIOD   12   TIME STEP  14
 
 SOLVING FOR HEAD 
     9 ITERATIONS FOR TIME STEP  15 IN STRESS PERIOD   12

 MAXIMUM HEAD CHANGE FOR EACH ITERATION:

    HEAD CHANGE   HEAD CHANGE   HEAD CHANGE   HEAD CHANGE   HEAD CHANGE
  LAYER,ROW,COL LAYER,ROW,COL LAYER,ROW,COL LAYER,ROW,COL LAYER,ROW,COL
 ----------------------------------------------------------------------
     0.6181E-01    0.2330E-01    0.1124E-01    0.5419E-02    0.2644E-02
  (  1,  8,  4) (  1, 15,  3) (  1, 15,  3) (  1, 15,  3) (  1, 15,  3)
     0.1260E-02    0.5934E-03    0.3138E-03    0.1115E-03
  (  1, 15,  3) (  1, 15,  3) (  1, 15,  3) (  1, 15,  3)


 OUTPUT CONTROL FOR STRESS PERIOD   12   TIME STEP  15
    PRINT BUDGET
    PRINT HEAD FOR ALL LAYERS
    SAVE HEAD FOR ALL LAYERS
    SAVE BUDGET

  HEAD DEP BOUNDS   PERIOD   12   STEP  15
 BOUNDARY      1   LAYER   1   ROW    13   COL     1   RATE   -0.262634    
 BOUNDARY      2   LAYER   1   ROW    14   COL     9   RATE    0.209594    
 UBDSV3 SAVING "           GW ET" ON UNIT  61 AT TIME STEP 15, STRESS PERIOD  12
 UBDSV3 SAVING "    UZF RECHARGE" ON UNIT  61 AT TIME STEP 15, STRESS PERIOD  12
 UBDSV3 SAVING " SURFACE LEAKAGE" ON UNIT  61 AT TIME STEP 15, STRESS PERIOD  12


UNSATURATED ZONE PACKAGE VOLUMETRIC BUDGET FOR  TIME STEP   15 STRESS PERIOD   12
  ------------------------------------------------------------------------------



     CUMULATIVE VOLUMES      L**3       RATES FOR THIS TIME STEP      L**3/T
     ------------------                 ------------------------

           IN:                                      IN:
           ---                                      ---
        INFILTRATION =  1536788574.2900          INFILTRATION =           8.4750

          OUT:                                     OUT:
          ----                                     ----
              UZF ET =  2130524466.2802                UZF ET =          29.5395
        UZF RECHARGE =   386751613.5782          UZF RECHARGE =          11.2548

            IN - OUT =  -980487505.5683              IN - OUT =         -32.3194

          STORAGE:                                 STORAGE:
          --------                                 --------
      STORAGE CHANGE =  -980359271.9020        STORAGE CHANGE =         -32.4173

 PERCENT DISCREPANCY IS DIFFERENCE BETWEEN IN-OUT MINUS CHANGE IN STORAGE
 DIVIDED BY THE AVERAGE OF IN AND OUT TIMES 100

 PERCENT DISCREPANCY =           0.00     PERCENT DISCREPANCY =           0.24









 STREAM LISTING     PERIOD     12   STEP       15

 LAYER ROW COL. STREAM  RCH.  FLOW INTO     FLOW TO   FLOW OUT OF   OVRLND.     DIRECT     STREAM       STREAM     STREAM     STREAM   STREAMBED  STREAMBED
                SEG.NO.  NO.  STRM. RCH.    AQUIFER    STRM. RCH.    RUNOFF     PRECIP       ET          HEAD       DEPTH      WIDTH   CONDCTNC.   GRADIENT

   1    1    1     1     1    2.5000E+01  1.0767E+00   2.3923E+01  0.000E+00  0.000E+00  0.000E+00  1.09422E+03  1.172E+00  1.295E+01  5.830E-01  6.157E-01
   1    2    2     1     2    2.3923E+01  3.0800E+00   2.0843E+01  0.000E+00  0.000E+00  0.000E+00  1.08920E+03  1.140E+00  1.252E+01  8.767E-01  1.171E+00
   1    3    3     1     3    2.0843E+01  2.9002E+00   1.7943E+01  0.000E+00  0.000E+00  0.000E+00  1.08351E+03  1.090E+00  1.182E+01  7.090E-01  1.363E+00
   1    3    4     1     4    1.7943E+01  2.4632E+00   1.5480E+01  0.000E+00  0.000E+00  0.000E+00  1.07845E+03  1.044E+00  1.097E+01  6.091E-01  1.348E+00
   1    4    5     2     1    5.4799E+00  2.6607E+00   2.8193E+00  0.000E+00  0.000E+00  0.000E+00  1.07235E+03  4.111E-01  1.200E+01  7.800E-01  1.137E+00
   1    5    6     2     2    2.8193E+00  1.9516E+00   8.6767E-01  0.000E+00  0.000E+00  0.000E+00  1.06676E+03  2.527E-01  1.200E+01  6.000E-01  1.084E+00
   1    6    6     2     3    8.6767E-01  8.6767E-01   0.0000E+00  0.000E+00  0.000E+00  0.000E+00  1.06183E+03  3.617E-02  1.200E+01  6.000E-01  1.012E+00
   1    7    6     2     4    0.0000E+00  0.0000E+00   0.0000E+00  0.000E+00  0.000E+00  0.000E+00  1.05708E+03  0.000E+00  1.200E+01  6.000E-01  1.000E+00
   1    8    6     2     5    0.0000E+00  0.0000E+00   0.0000E+00  0.000E+00  0.000E+00  0.000E+00  1.05236E+03  0.000E+00  1.200E+01  6.000E-01  1.000E+00
   1    3    5     3     1    1.0000E+01  2.8252E+00   7.1748E+00  0.000E+00  0.000E+00  0.000E+00  1.07555E+03  1.909E+00  9.636E+00  7.227E-01  1.955E+00
   1    3    6     3     2    7.1748E+00  1.9446E+00   5.2302E+00  0.000E+00  0.000E+00  0.000E+00  1.07264E+03  1.727E+00  8.909E+00  6.682E-01  1.455E+00
   1    3    7     3     3    5.2302E+00  9.3575E-01   4.2945E+00  0.000E+00  0.000E+00  0.000E+00  1.06987E+03  1.555E+00  8.218E+00  5.547E-01  8.434E-01
   1    4    8     3     4    4.2945E+00  1.5800E+00   2.7144E+00  0.000E+00  0.000E+00  0.000E+00  1.06682E+03  1.364E+00  7.455E+00  6.709E-01  1.178E+00
   1    5    8     3     5    2.7144E+00  1.5790E+00   1.1355E+00  0.000E+00  0.000E+00  0.000E+00  1.06362E+03  1.164E+00  6.655E+00  4.991E-01  1.582E+00
   1    6    8     3     6    1.1355E+00  5.5980E-01   5.7568E-01  0.000E+00  0.000E+00  0.000E+00  1.06158E+03  1.036E+00  6.145E+00  1.844E-01  1.518E+00
   1    5   10     4     1    1.0000E+01  9.0525E-01   9.0947E+00  0.000E+00  0.000E+00  0.000E+00  1.07835E+03  6.210E-01  1.000E+01  2.500E-01  1.207E+00
   1    5    9     4     2    9.0947E+00  1.7835E+00   7.3113E+00  0.000E+00  0.000E+00  0.000E+00  1.07148E+03  5.670E-01  1.000E+01  5.000E-01  1.189E+00
   1    6    8     4     3    7.3113E+00  1.2257E+00   6.0855E+00  0.000E+00  0.000E+00  0.000E+00  1.06368E+03  5.021E-01  1.000E+01  3.500E-01  1.167E+00
   1    6    8     5     1    6.6612E+00  8.1278E-01   5.8484E+00  0.000E+00  0.000E+00  0.000E+00  1.05857E+03  5.699E-01  1.142E+01  4.566E-01  5.933E-01
   1    7    7     5     2    5.8484E+00  1.6279E+00   4.2205E+00  0.000E+00  0.000E+00  0.000E+00  1.05403E+03  5.282E-01  1.002E+01  5.011E-01  1.083E+00
   1    8    7     5     3    4.2205E+00  1.0153E+00   3.2052E+00  0.000E+00  0.000E+00  0.000E+00  1.04972E+03  4.748E-01  8.349E+00  2.922E-01  1.158E+00
   1    8    6     5     4    3.2052E+00  5.8975E-01   2.6155E+00  0.000E+00  0.000E+00  0.000E+00  1.04669E+03  4.360E-01  7.214E+00  1.803E-01  1.090E+00
   1    9    6     6     1    2.6155E+00  1.9431E+00   6.7236E-01  0.000E+00  0.000E+00  0.000E+00  1.04297E+03  2.385E-01  1.200E+01  6.000E-01  1.080E+00
   1   10    7     6     2    6.7236E-01  6.7236E-01   0.0000E+00  0.000E+00  0.000E+00  0.000E+00  1.03821E+03  3.139E-02  1.200E+01  6.000E-01  1.010E+00
   1   11    7     6     3    0.0000E+00  0.0000E+00   0.0000E+00  0.000E+00  0.000E+00  0.000E+00  1.03364E+03  0.000E+00  1.200E+01  6.000E-01  9.838E-01
   1   12    7     6     4    0.0000E+00  0.0000E+00   0.0000E+00  0.000E+00  0.000E+00  0.000E+00  1.02909E+03  0.000E+00  1.200E+01  6.000E-01  2.610E-01
   1   13    7     6     5    0.0000E+00 -7.9889E-01   7.9889E-01  0.000E+00  0.000E+00  0.000E+00  1.02591E+03  0.000E+00  1.200E+01  2.400E-01 -1.110E+00
   1   14    9     7     1    1.5000E+02  2.1356E+00   1.4786E+02  0.000E+00  0.000E+00  0.000E+00  1.03987E+03  2.286E+00  5.529E+01  5.592E+00  1.273E-01
   1   13    8     7     2    1.4786E+02  3.1077E+00   1.4476E+02  0.000E+00  0.000E+00  0.000E+00  1.03477E+03  2.272E+00  5.522E+01  6.144E+00  1.686E-01
   1   13    7     7     3    1.4476E+02  2.4445E+00   1.4231E+02  0.000E+00  0.000E+00  0.000E+00  1.02968E+03  2.257E+00  5.516E+01  5.578E+00  1.461E-01
   1   13    6     8     1    1.4311E+02  7.1215E-01   1.4240E+02  0.000E+00  0.000E+00  0.000E+00  1.02464E+03  2.765E+00  4.009E+01  4.086E+00  5.810E-02
   1   13    5     8     2    1.4240E+02 -2.0508E+00   1.4445E+02  0.000E+00  0.000E+00  0.000E+00  1.01839E+03  2.770E+00  4.016E+01  4.093E+00 -1.670E-01
   1   13    4     8     3    1.4445E+02 -3.7622E+00   1.4821E+02  0.000E+00  0.000E+00  0.000E+00  1.01217E+03  2.791E+00  4.047E+01  4.124E+00 -3.041E-01
   1   13    3     8     4    1.4821E+02 -3.9799E+00   1.5219E+02  0.000E+00  0.000E+00  0.000E+00  1.00594E+03  2.818E+00  4.086E+01  4.164E+00 -3.186E-01
   1   13    2     8     5    1.5219E+02 -1.9976E+00   1.5419E+02  0.000E+00  0.000E+00  0.000E+00  9.99714E+02  2.839E+00  4.117E+01  4.195E+00 -1.587E-01
   1   13    1     8     6    1.5419E+02 -4.7635E-01   1.5467E+02  0.000E+00  0.000E+00  0.000E+00  9.94723E+02  2.848E+00  4.129E+01  2.525E+00 -6.289E-02



1
              HEAD IN LAYER   1 AT END OF TIME STEP  15 IN STRESS PERIOD   12
  ---------------------------------------------------------------------------

           1       2       3       4       5       6       7       8       9      10
 ...................................................................................
   1  1092.37 1088.62 6999.00 6999.00 6999.00 6999.00 6999.00 6999.00 6999.00 6999.00
   2  1089.01 1085.69 1079.29 6999.00 6999.00 1073.63 1072.54 1070.97 6999.00 6999.00
   3  6999.00 1077.38 1074.53 1070.40 1070.89 1069.73 1068.19 1067.88 6999.00 6999.00
   4  1069.51 1068.75 1067.10 1063.67 1062.51 1061.22 1061.78 1064.46 1063.91 6999.00
   5  1065.40 1061.88 1059.39 1057.54 1057.25 1057.77 1057.60 1059.59 1063.01 1065.39
   6  1060.65 1056.02 1053.11 1051.72 1052.00 1053.32 1054.52 1056.79 1059.55 1063.66
   7  1056.94 1050.38 1047.40 1046.23 1046.83 1048.45 1050.78 1053.10 1054.36 6999.00
   8  6999.00 1042.92 1041.40 1040.73 1041.58 1043.42 1045.19 1047.54 1049.31 6999.00
   9  6999.00 1035.92 1035.35 1035.29 1036.46 1038.47 1039.35 1041.08 1043.88 6999.00
  10  6999.00 1028.78 1029.18 1030.18 1031.62 1033.35 1034.61 1036.48 1040.18 1045.30
  11  6999.00 1019.85 1021.63 1025.14 1027.16 1029.22 1030.68 1032.95 1036.39 6999.00
  12  1001.21 1008.88 1014.17 1019.07 1022.71 1025.93 1028.31 1031.01 1034.88 6999.00
  13   994.91 1000.19 1006.90 1013.08 1018.90 1024.47 1029.24 1034.27 1036.38 6999.00
  14  6999.00 1005.79 1011.36 1016.09 1021.14 1025.87 1030.11 1035.21 1039.48 6999.00
  15  6999.00 6999.00 1018.96 1022.40 1026.57 1029.77 6999.00 6999.00 6999.00 6999.00

 HEAD WILL BE SAVED ON UNIT   58 AT END OF TIME STEP  15, STRESS PERIOD   12
1
  VOLUMETRIC BUDGET FOR ENTIRE MODEL AT END OF TIME STEP 15 IN STRESS PERIOD  12
  ------------------------------------------------------------------------------

     CUMULATIVE VOLUMES      L**3       RATES FOR THIS TIME STEP      L**3/T
     ------------------                 ------------------------

           IN:                                      IN:
           ---                                      ---
             STORAGE =   128134728.0000               STORAGE =           0.8589
       CONSTANT HEAD =           0.0000         CONSTANT HEAD =           0.0000
               WELLS =           0.0000                 WELLS =           0.0000
     HEAD DEP BOUNDS =     6590156.0000       HEAD DEP BOUNDS =           0.2096
        UZF RECHARGE =   386751840.0000          UZF RECHARGE =          11.2548
               GW ET =           0.0000                 GW ET =           0.0000
     SURFACE LEAKAGE =           0.0000       SURFACE LEAKAGE =           0.0000
      STREAM LEAKAGE =  1361670272.0000        STREAM LEAKAGE =          43.3998

            TOTAL IN =  1883147008.0000              TOTAL IN =          55.7231

          OUT:                                     OUT:
          ----                                     ----
             STORAGE =   504079840.0000               STORAGE =          22.7836
       CONSTANT HEAD =           0.0000         CONSTANT HEAD =           0.0000
               WELLS =   394199936.0000                 WELLS =           0.0000
     HEAD DEP BOUNDS =     8307336.5000       HEAD DEP BOUNDS =           0.2626
        UZF RECHARGE =           0.0000          UZF RECHARGE =           0.0000
               GW ET =   553812096.0000                 GW ET =          19.6295
     SURFACE LEAKAGE =           0.0000       SURFACE LEAKAGE =           0.0000
      STREAM LEAKAGE =   422487904.0000        STREAM LEAKAGE =          13.0657

           TOTAL OUT =  1882887168.0000             TOTAL OUT =          55.7414

            IN - OUT =      259840.0000              IN - OUT =      -1.8288E-02

 PERCENT DISCREPANCY =           0.01     PERCENT DISCREPANCY =          -0.03






          TIME SUMMARY AT END OF TIME STEP  15 IN STRESS PERIOD   12
                    SECONDS     MINUTES      HOURS       DAYS        YEARS
                    -----------------------------------------------------------
   TIME STEP LENGTH 3.14103E+05  5235.0      87.251      3.6354     9.95332E-03
 STRESS PERIOD TIME 2.62800E+06  43800.      730.00      30.417     8.32763E-02
         TOTAL TIME 3.15360E+07 5.25600E+05  8760.0      365.00     0.99932    
1

 Run end date and time (yyyy/mm/dd hh:mm:ss): 2009/12/22  9:39:09
 Elapsed run time:  6.203 Seconds

